ver_1.2
     RDKit          3D

 22 25  0  0  0  0  0  0  0  0999 V2000
    2.2616   -1.0947    0.1140 O   0  0  0  0  0  0  0  0  0  0  0  0
    2.3915    0.1456    0.3110 C   0  0  0  0  0  0  0  0  0  0  0  0
    1.5576    1.2682    0.4838 N   0  0  0  0  0  0  0  0  0  0  0  0
    0.1204    1.1596    0.4584 C   0  0  0  0  0  0  0  0  0  0  0  0
   -0.7205    1.2684   -0.6499 C   0  0  0  0  0  0  0  0  0  0  0  0
   -1.6251    0.3129   -1.1245 C   0  0  0  0  0  0  0  0  0  0  0  0
   -1.7863    0.2130   -2.4677 C   0  0  0  0  0  0  0  0  0  0  0  0
   -2.6351   -0.6791   -2.9952 N   0  0  0  0  0  0  0  0  0  0  0  0
   -3.3861   -1.5346   -2.2808 C   0  0  0  0  0  0  0  0  0  0  0  0
   -3.2554   -1.4701   -0.8974 C   0  0  0  0  0  0  0  0  0  0  0  0
   -2.3799   -0.5497   -0.3569 C   0  0  0  0  0  0  0  0  0  0  0  0
   -2.3902   -0.6383    1.0269 C   0  0  0  0  0  0  0  0  0  0  0  0
   -3.2078   -1.3813    1.7901 N   0  0  0  0  0  0  0  0  0  0  0  0
   -2.9095   -1.2005    3.0778 N   0  0  0  0  0  0  0  0  0  0  0  0
   -1.8993   -0.3449    3.2151 C   0  0  0  0  0  0  0  0  0  0  0  0
   -1.5005    0.0676    1.9741 C   0  0  0  0  0  0  0  0  0  0  0  0
   -0.5218    0.9239    1.6341 N   0  0  0  0  0  0  0  0  0  0  0  0
    3.8758    0.2536    0.3365 C   0  0  0  0  0  0  0  0  0  0  0  0
    4.3436    1.1732   -0.7494 C   0  0  0  0  0  0  0  0  0  0  0  0
    4.8815    0.1951   -1.7922 C   0  0  0  0  0  0  0  0  0  0  0  0
    4.3325   -1.1289   -1.2522 C   0  0  0  0  0  0  0  0  0  0  0  0
    4.4531   -0.9821    0.1443 O   0  0  0  0  0  0  0  0  0  0  0  0
  1  2  2  0
  2  3  1  0
  3  4  1  0
  4  5  2  0
  5  6  1  0
  6  7  2  0
  7  8  1  0
  8  9  2  0
  9 10  1  0
 10 11  2  0
 11 12  1  0
 12 13  2  0
 13 14  1  0
 14 15  2  0
 15 16  1  0
 16 17  2  0
  2 18  1  0
 18 19  1  0
 19 20  1  0
 20 21  1  0
 21 22  1  0
 17  4  1  0
 22 18  1  0
 11  6  1  0
 16 12  1  0
M  END
>  <ref_url>  (1) 
https://github.com/mwinokan/BulkDock

>  <submitter_name>  (1) 
Max Winokan

>  <submitter_email>  (1) 
max.winokan@diamond.ac.uk

>  <submitter_institution>  (1) 
DLS

>  <generation_date>  (1) 
2024-12-04

>  <method>  (1) 
Fstein_Primer

>  <SLURM_JOB_ID>  (1) 
SLURM_JOB_ID

>  <SLURM_JOB_NAME>  (1) 
SLURM_JOB_NAME

>  <csv_name>  (1) 
csv_name

>  <scratch_subdir>  (1) 
scratch_subdir

>  <fragmenstein_runtime>  (1) 
fragmenstein_runtime

>  <fragmenstein_outcome>  (1) 
fragmenstein_outcome

>  <fragmenstein_mode>  (1) 
fragmenstein_mode

>  <fragmenstein_error>  (1) 
fragmenstein_error

>  <exports>  (1) 
exports

>  <HIPPO Pose ID>  (1) 
HIPPO Pose ID

>  <HIPPO Compound ID>  (1) 
HIPPO Compound ID

>  <smiles>  (1) 
smiles

>  <ref_pdb>  (1) 
protein reference

>  <ref_mols>  (1) 
fragment inspirations

>  <original ID>  (1) 
original ID

>  <compound inchikey>  (1) 
compound inchikey

$$$$
77324
     RDKit          3D

 22 25  0  0  0  0  0  0  0  0999 V2000
  -18.8726  -44.3452  -22.1481 O   0  0  0  0  0  0  0  0  0  0  0  0
  -17.9945  -44.2022  -21.3892 C   0  0  0  0  0  0  0  0  0  0  0  0
  -16.6100  -43.5086  -21.5661 N   0  0  0  0  0  0  0  0  0  0  0  0
  -16.1009  -42.8153  -22.6126 C   0  0  0  0  0  0  0  0  0  0  0  0
  -16.7559  -42.7026  -23.7758 C   0  0  0  0  0  0  0  0  0  0  0  0
  -16.4658  -41.8867  -24.9600 C   0  0  0  0  0  0  0  0  0  0  0  0
  -17.2191  -42.1303  -26.1132 C   0  0  0  0  0  0  0  0  0  0  0  0
  -17.1577  -41.4180  -27.2628 N   0  0  0  0  0  0  0  0  0  0  0  0
  -16.2738  -40.4038  -27.2795 C   0  0  0  0  0  0  0  0  0  0  0  0
  -15.4901  -40.0521  -26.1982 C   0  0  0  0  0  0  0  0  0  0  0  0
  -15.5953  -40.8026  -25.0221 C   0  0  0  0  0  0  0  0  0  0  0  0
  -14.7564  -40.4000  -23.9035 C   0  0  0  0  0  0  0  0  0  0  0  0
  -14.0839  -39.2815  -23.8236 N   0  0  0  0  0  0  0  0  0  0  0  0
  -13.2298  -39.2932  -22.6535 N   0  0  0  0  0  0  0  0  0  0  0  0
  -13.4005  -40.4123  -22.0362 C   0  0  0  0  0  0  0  0  0  0  0  0
  -14.4490  -41.1910  -22.7152 C   0  0  0  0  0  0  0  0  0  0  0  0
  -14.9500  -42.2433  -22.1836 N   0  0  0  0  0  0  0  0  0  0  0  0
  -18.0075  -44.5898  -19.9038 C   0  0  1  0  0  0  0  0  0  0  0  0
  -19.0496  -45.6128  -19.5183 C   0  0  0  0  0  0  0  0  0  0  0  0
  -18.4691  -46.1094  -18.2170 C   0  0  0  0  0  0  0  0  0  0  0  0
  -16.9953  -46.1793  -18.5490 C   0  0  0  0  0  0  0  0  0  0  0  0
  -16.7370  -45.0946  -19.4494 O   0  0  0  0  0  0  0  0  0  0  0  0
  1  2  2  0
  2  3  1  0
  3  4  1  0
  4  5  2  0
  5  6  1  0
  6  7  2  0
  7  8  1  0
  8  9  2  0
  9 10  1  0
 10 11  2  0
 11 12  1  0
 12 13  2  0
 13 14  1  0
 14 15  2  0
 15 16  1  0
 16 17  2  0
 18  2  1  6
 18 19  1  0
 19 20  1  0
 20 21  1  0
 21 22  1  0
 17  4  1  0
 22 18  1  0
 11  6  1  0
 16 12  1  0
M  END
>  <HIPPO Pose ID>  (1) 
77324

>  <energy_score>  (1) 
-69.893382

>  <csv_name>  (1) 
primer_grip_n_pocket_fstein_bulkdock_input_split1000_batch000.csv

>  <fragmenstein_mode>  (1) 
expansion

>  <exports>  (1) 
['/opt/xchem-fragalysis-2/maxwin/BulkDock/OUTPUTS/primer_grip_n_pocket_fstein_bulkdock_input_split1000_batch000_217912.sdf']

>  <name>  (1) 
SFONWHZSYDOIGE-GFCCVEGCSA-N

>  <ref_pdb>  (1) 
d0160a

>  <scratch_subdir>  (1) 
/opt/xchem-fragalysis-2/maxwin/BulkDock/SCRATCH/217912/C67380-P12

>  <ref_mols>  (1) 
d0160a,d0254a

>  <original ID>  (1) 
SFONWHZSYDOIGE-GFCCVEGCSA-N

>  <fragmenstein_runtime>  (1) 
4.554439

>  <alias>  (1) 
None

>  <SLURM_JOB_ID>  (1) 
217912

>  <original SMILES>  (1) 
O=C(Nc1cc2cnccc2c2nncc-2n1)[C@H]1CCCO1

>  <tags>  (1) 
['Fragmenstein placed']

>  <inchikey>  (1) 
SFONWHZSYDOIGE-GFCCVEGCSA-N

>  <SLURM_JOB_NAME>  (1) 
BulkDock.place:Flavi_NS5_RdRp:primer_grip_n_pocket_fstein_bulkdock_input_split1000_batch000

>  <fragmenstein_outcome>  (1) 
acceptable

>  <distance_score>  (1) 
0.779381

>  <HIPPO Compound ID>  (1) 
67380

>  <fragmenstein_error>  (1) 
None

$$$$
77327
     RDKit          3D

 22 25  0  0  0  0  0  0  0  0999 V2000
  -18.9274  -44.1815  -22.1971 O   0  0  0  0  0  0  0  0  0  0  0  0
  -18.0349  -44.1448  -21.4390 C   0  0  0  0  0  0  0  0  0  0  0  0
  -16.5952  -43.5592  -21.5982 N   0  0  0  0  0  0  0  0  0  0  0  0
  -16.0353  -42.8642  -22.6192 C   0  0  0  0  0  0  0  0  0  0  0  0
  -16.6007  -42.8105  -23.8312 C   0  0  0  0  0  0  0  0  0  0  0  0
  -16.2441  -42.0167  -25.0115 C   0  0  0  0  0  0  0  0  0  0  0  0
  -16.8616  -42.3496  -26.2175 C   0  0  0  0  0  0  0  0  0  0  0  0
  -16.8168  -41.6230  -27.3595 N   0  0  0  0  0  0  0  0  0  0  0  0
  -16.0564  -40.5139  -27.3200 C   0  0  0  0  0  0  0  0  0  0  0  0
  -15.3650  -40.1011  -26.1991 C   0  0  0  0  0  0  0  0  0  0  0  0
  -15.4642  -40.8657  -25.0305 C   0  0  0  0  0  0  0  0  0  0  0  0
  -14.6887  -40.4283  -23.8810 C   0  0  0  0  0  0  0  0  0  0  0  0
  -14.0221  -39.3060  -23.8028 N   0  0  0  0  0  0  0  0  0  0  0  0
  -13.2194  -39.2859  -22.5987 N   0  0  0  0  0  0  0  0  0  0  0  0
  -13.4137  -40.3886  -21.9590 C   0  0  0  0  0  0  0  0  0  0  0  0
  -14.4265  -41.1931  -22.6625 C   0  0  0  0  0  0  0  0  0  0  0  0
  -14.9292  -42.2482  -22.1351 N   0  0  0  0  0  0  0  0  0  0  0  0
  -18.0818  -44.5984  -19.9692 C   0  0  1  0  0  0  0  0  0  0  0  0
  -19.1084  -45.6662  -19.6685 C   0  0  0  0  0  0  0  0  0  0  0  0
  -18.5694  -46.2029  -18.3658 C   0  0  0  0  0  0  0  0  0  0  0  0
  -17.0811  -46.2139  -18.6336 C   0  0  0  0  0  0  0  0  0  0  0  0
  -16.8187  -45.0868  -19.4797 O   0  0  0  0  0  0  0  0  0  0  0  0
  1  2  2  0
  2  3  1  0
  3  4  1  0
  4  5  2  0
  5  6  1  0
  6  7  2  0
  7  8  1  0
  8  9  2  0
  9 10  1  0
 10 11  2  0
 11 12  1  0
 12 13  2  0
 13 14  1  0
 14 15  2  0
 15 16  1  0
 16 17  2  0
 18  2  1  6
 18 19  1  0
 19 20  1  0
 20 21  1  0
 21 22  1  0
 17  4  1  0
 22 18  1  0
 11  6  1  0
 16 12  1  0
M  END
>  <HIPPO Pose ID>  (2) 
77327

>  <energy_score>  (2) 
-69.677545

>  <csv_name>  (2) 
primer_grip_n_pocket_fstein_bulkdock_input_split1000_batch000.csv

>  <fragmenstein_mode>  (2) 
expansion

>  <exports>  (2) 
['/opt/xchem-fragalysis-2/maxwin/BulkDock/OUTPUTS/primer_grip_n_pocket_fstein_bulkdock_input_split1000_batch000_217912.sdf']

>  <name>  (2) 
SFONWHZSYDOIGE-GFCCVEGCSA-N

>  <ref_pdb>  (2) 
d0254a

>  <scratch_subdir>  (2) 
/opt/xchem-fragalysis-2/maxwin/BulkDock/SCRATCH/217912/C67380-P26

>  <ref_mols>  (2) 
d0160a,d0254a

>  <original ID>  (2) 
SFONWHZSYDOIGE-GFCCVEGCSA-N

>  <fragmenstein_runtime>  (2) 
3.33151

>  <alias>  (2) 
None

>  <SLURM_JOB_ID>  (2) 
217912

>  <original SMILES>  (2) 
O=C(Nc1cc2cnccc2c2nncc-2n1)[C@H]1CCCO1

>  <tags>  (2) 
['Fragmenstein placed']

>  <inchikey>  (2) 
SFONWHZSYDOIGE-GFCCVEGCSA-N

>  <SLURM_JOB_NAME>  (2) 
BulkDock.place:Flavi_NS5_RdRp:primer_grip_n_pocket_fstein_bulkdock_input_split1000_batch000

>  <fragmenstein_outcome>  (2) 
acceptable

>  <distance_score>  (2) 
0.785085

>  <HIPPO Compound ID>  (2) 
67380

>  <fragmenstein_error>  (2) 
None

$$$$
77329
     RDKit          3D

 23 26  0  0  0  0  0  0  0  0999 V2000
  -13.3940  -43.7669  -19.1727 C   0  0  0  0  0  0  0  0  0  0  0  0
  -14.3599  -44.5874  -18.6657 C   0  0  0  0  0  0  0  0  0  0  0  0
  -15.3903  -45.0435  -19.3862 N   0  0  0  0  0  0  0  0  0  0  0  0
  -15.5597  -44.5905  -20.6688 C   0  0  0  0  0  0  0  0  0  0  0  0
  -16.6346  -45.2642  -21.3299 N   0  0  0  0  0  0  0  0  0  0  0  0
  -17.4033  -44.8715  -22.3973 C   0  0  0  0  0  0  0  0  0  0  0  0
  -18.2286  -45.9074  -22.7690 C   0  0  0  0  0  0  0  0  0  0  0  0
  -18.0605  -46.9395  -21.8264 C   0  0  0  0  0  0  0  0  0  0  0  0
  -17.1214  -46.5035  -20.9242 C   0  0  0  0  0  0  0  0  0  0  0  0
  -14.6886  -43.6580  -21.2612 C   0  0  0  0  0  0  0  0  0  0  0  0
  -14.6872  -43.1026  -22.6743 C   0  0  0  0  0  0  0  0  0  0  0  0
  -14.6486  -41.5762  -22.6852 C   0  0  0  0  0  0  0  0  0  0  0  0
  -14.1096  -40.6863  -21.7658 C   0  0  0  0  0  0  0  0  0  0  0  0
  -14.1667  -39.4439  -22.3094 N   0  0  0  0  0  0  0  0  0  0  0  0
  -14.7322  -39.4210  -23.5100 N   0  0  0  0  0  0  0  0  0  0  0  0
  -15.0824  -40.6960  -23.7508 C   0  0  0  0  0  0  0  0  0  0  0  0
  -15.8425  -40.9882  -24.9642 C   0  0  0  0  0  0  0  0  0  0  0  0
  -15.4455  -40.4741  -26.1984 C   0  0  0  0  0  0  0  0  0  0  0  0
  -16.2599  -40.6955  -27.2995 C   0  0  0  0  0  0  0  0  0  0  0  0
  -17.4319  -41.3707  -27.2533 N   0  0  0  0  0  0  0  0  0  0  0  0
  -17.7981  -41.8392  -26.0429 C   0  0  0  0  0  0  0  0  0  0  0  0
  -17.0527  -41.6731  -24.8877 C   0  0  0  0  0  0  0  0  0  0  0  0
  -13.5473  -43.3536  -20.4839 C   0  0  0  0  0  0  0  0  0  0  0  0
  1  2  2  0
  2  3  1  0
  3  4  2  0
  4  5  1  0
  5  6  1  0
  6  7  2  0
  7  8  1  0
  8  9  2  0
  4 10  1  0
 10 11  1  0
 11 12  1  0
 12 13  2  0
 13 14  1  0
 14 15  1  0
 15 16  2  0
 16 17  1  0
 17 18  2  0
 18 19  1  0
 19 20  2  0
 20 21  1  0
 21 22  2  0
 10 23  2  0
 23  1  1  0
  9  5  1  0
 16 12  1  0
 22 17  1  0
M  END
>  <HIPPO Pose ID>  (3) 
77329

>  <energy_score>  (3) 
-45.54506

>  <csv_name>  (3) 
primer_grip_n_pocket_fstein_bulkdock_input_split1000_batch000.csv

>  <fragmenstein_mode>  (3) 
expansion

>  <exports>  (3) 
['/opt/xchem-fragalysis-2/maxwin/BulkDock/OUTPUTS/primer_grip_n_pocket_fstein_bulkdock_input_split1000_batch000_217912.sdf']

>  <name>  (3) 
PQFYGOHXRFFVHF-UHFFFAOYSA-N

>  <ref_pdb>  (3) 
d0160a

>  <scratch_subdir>  (3) 
/opt/xchem-fragalysis-2/maxwin/BulkDock/SCRATCH/217912/C67381-P12

>  <ref_mols>  (3) 
d0160a,d0472a

>  <original ID>  (3) 
PQFYGOHXRFFVHF-UHFFFAOYSA-N

>  <fragmenstein_runtime>  (3) 
3.629685

>  <alias>  (3) 
None

>  <SLURM_JOB_ID>  (3) 
217912

>  <original SMILES>  (3) 
c1cnc(-n2cccc2)c(Cc2c[nH]nc2-c2ccncc2)c1

>  <tags>  (3) 
['Fragmenstein placed']

>  <inchikey>  (3) 
PQFYGOHXRFFVHF-UHFFFAOYSA-N

>  <SLURM_JOB_NAME>  (3) 
BulkDock.place:Flavi_NS5_RdRp:primer_grip_n_pocket_fstein_bulkdock_input_split1000_batch000

>  <fragmenstein_outcome>  (3) 
acceptable

>  <distance_score>  (3) 
0.68595

>  <HIPPO Compound ID>  (3) 
67381

>  <fragmenstein_error>  (3) 
None

$$$$
77330
     RDKit          3D

 23 26  0  0  0  0  0  0  0  0999 V2000
  -13.4151  -43.7887  -19.1035 C   0  0  0  0  0  0  0  0  0  0  0  0
  -14.4038  -44.5749  -18.5803 C   0  0  0  0  0  0  0  0  0  0  0  0
  -15.4178  -45.0494  -19.3156 N   0  0  0  0  0  0  0  0  0  0  0  0
  -15.5735  -44.6155  -20.6085 C   0  0  0  0  0  0  0  0  0  0  0  0
  -16.6599  -45.2767  -21.2672 N   0  0  0  0  0  0  0  0  0  0  0  0
  -17.4371  -44.8657  -22.3231 C   0  0  0  0  0  0  0  0  0  0  0  0
  -18.2965  -45.8797  -22.6821 C   0  0  0  0  0  0  0  0  0  0  0  0
  -18.1237  -46.9238  -21.7541 C   0  0  0  0  0  0  0  0  0  0  0  0
  -17.1577  -46.5135  -20.8670 C   0  0  0  0  0  0  0  0  0  0  0  0
  -14.6867  -43.7025  -21.2083 C   0  0  0  0  0  0  0  0  0  0  0  0
  -14.6856  -43.1448  -22.6223 C   0  0  0  0  0  0  0  0  0  0  0  0
  -14.6418  -41.6165  -22.6280 C   0  0  0  0  0  0  0  0  0  0  0  0
  -14.1184  -40.7357  -21.6908 C   0  0  0  0  0  0  0  0  0  0  0  0
  -14.1605  -39.4887  -22.2242 N   0  0  0  0  0  0  0  0  0  0  0  0
  -14.6948  -39.4536  -23.4381 N   0  0  0  0  0  0  0  0  0  0  0  0
  -15.0516  -40.7242  -23.6953 C   0  0  0  0  0  0  0  0  0  0  0  0
  -15.7988  -40.9930  -24.9229 C   0  0  0  0  0  0  0  0  0  0  0  0
  -15.4139  -40.4199  -26.1363 C   0  0  0  0  0  0  0  0  0  0  0  0
  -16.2283  -40.6049  -27.2437 C   0  0  0  0  0  0  0  0  0  0  0  0
  -17.3861  -41.3041  -27.2243 N   0  0  0  0  0  0  0  0  0  0  0  0
  -17.7401  -41.8314  -26.0339 C   0  0  0  0  0  0  0  0  0  0  0  0
  -16.9956  -41.7023  -24.8745 C   0  0  0  0  0  0  0  0  0  0  0  0
  -13.5419  -43.4095  -20.4307 C   0  0  0  0  0  0  0  0  0  0  0  0
  1  2  2  0
  2  3  1  0
  3  4  2  0
  4  5  1  0
  5  6  1  0
  6  7  2  0
  7  8  1  0
  8  9  2  0
  4 10  1  0
 10 11  1  0
 11 12  1  0
 12 13  2  0
 13 14  1  0
 14 15  1  0
 15 16  2  0
 16 17  1  0
 17 18  2  0
 18 19  1  0
 19 20  2  0
 20 21  1  0
 21 22  2  0
 10 23  2  0
 23  1  1  0
  9  5  1  0
 16 12  1  0
 22 17  1  0
M  END
>  <HIPPO Pose ID>  (4) 
77330

>  <energy_score>  (4) 
-45.308296

>  <csv_name>  (4) 
primer_grip_n_pocket_fstein_bulkdock_input_split1000_batch000.csv

>  <fragmenstein_mode>  (4) 
expansion

>  <exports>  (4) 
['/opt/xchem-fragalysis-2/maxwin/BulkDock/OUTPUTS/primer_grip_n_pocket_fstein_bulkdock_input_split1000_batch000_217912.sdf']

>  <name>  (4) 
PQFYGOHXRFFVHF-UHFFFAOYSA-N

>  <ref_pdb>  (4) 
d0472a

>  <scratch_subdir>  (4) 
/opt/xchem-fragalysis-2/maxwin/BulkDock/SCRATCH/217912/C67381-P42

>  <ref_mols>  (4) 
d0160a,d0472a

>  <original ID>  (4) 
PQFYGOHXRFFVHF-UHFFFAOYSA-N

>  <fragmenstein_runtime>  (4) 
3.495174

>  <alias>  (4) 
None

>  <SLURM_JOB_ID>  (4) 
217912

>  <original SMILES>  (4) 
c1cnc(-n2cccc2)c(Cc2c[nH]nc2-c2ccncc2)c1

>  <tags>  (4) 
['Fragmenstein placed']

>  <inchikey>  (4) 
PQFYGOHXRFFVHF-UHFFFAOYSA-N

>  <SLURM_JOB_NAME>  (4) 
BulkDock.place:Flavi_NS5_RdRp:primer_grip_n_pocket_fstein_bulkdock_input_split1000_batch000

>  <fragmenstein_outcome>  (4) 
acceptable

>  <distance_score>  (4) 
0.682072

>  <HIPPO Compound ID>  (4) 
67381

>  <fragmenstein_error>  (4) 
None

$$$$
77362
     RDKit          3D

 28 32  0  0  0  0  0  0  0  0999 V2000
  -15.0546  -42.7754  -21.9961 C   0  0  0  0  0  0  0  0  0  0  0  0
  -14.4546  -41.4248  -22.1496 C   0  0  0  0  0  0  0  0  0  0  0  0
  -13.5734  -40.8520  -21.2605 C   0  0  0  0  0  0  0  0  0  0  0  0
  -13.0360  -39.7637  -21.8889 N   0  0  0  0  0  0  0  0  0  0  0  0
  -11.6578  -39.3648  -21.6540 C   0  0  0  0  0  0  0  0  0  0  0  0
  -11.2068  -37.9618  -21.2605 C   0  0  1  0  0  0  0  0  0  0  0  0
  -11.5608  -36.9238  -22.3045 C   0  0  0  0  0  0  0  0  0  0  0  0
  -12.7678  -36.2125  -21.7366 C   0  0  0  0  0  0  0  0  0  0  0  0
  -12.3885  -36.0810  -20.2595 C   0  0  1  0  0  0  0  0  0  0  0  0
  -11.7350  -37.4342  -19.9320 C   0  0  0  0  0  0  0  0  0  0  0  0
  -11.4959  -34.9613  -20.0550 N   0  0  0  0  0  0  0  0  0  0  0  0
  -11.9950  -33.6829  -20.1442 C   0  0  0  0  0  0  0  0  0  0  0  0
  -11.3273  -32.7407  -20.5600 O   0  0  0  0  0  0  0  0  0  0  0  0
  -13.3990  -33.5218  -19.7140 C   0  0  0  0  0  0  0  0  0  0  0  0
  -13.9717  -32.2596  -19.6213 C   0  0  0  0  0  0  0  0  0  0  0  0
  -15.2871  -32.1361  -19.1899 C   0  0  0  0  0  0  0  0  0  0  0  0
  -16.0330  -33.2661  -18.8684 C   0  0  0  0  0  0  0  0  0  0  0  0
  -15.4520  -34.5270  -18.9506 C   0  0  0  0  0  0  0  0  0  0  0  0
  -14.1367  -34.6683  -19.3998 C   0  0  0  0  0  0  0  0  0  0  0  0
  -13.5496  -35.9349  -19.4092 N   0  0  0  0  0  0  0  0  0  0  0  0
  -13.6851  -39.4668  -23.0467 N   0  0  0  0  0  0  0  0  0  0  0  0
  -14.5653  -40.4845  -23.2324 C   0  0  0  0  0  0  0  0  0  0  0  0
  -15.4449  -40.6066  -24.4246 C   0  0  0  0  0  0  0  0  0  0  0  0
  -15.1106  -40.0505  -25.6586 C   0  0  0  0  0  0  0  0  0  0  0  0
  -15.9608  -40.2546  -26.7455 C   0  0  0  0  0  0  0  0  0  0  0  0
  -17.1128  -40.9629  -26.7014 N   0  0  0  0  0  0  0  0  0  0  0  0
  -17.4293  -41.4774  -25.5019 C   0  0  0  0  0  0  0  0  0  0  0  0
  -16.6529  -41.3170  -24.3599 C   0  0  0  0  0  0  0  0  0  0  0  0
  1  2  1  0
  2  3  2  0
  3  4  1  0
  4  5  1  0
  6  5  1  6
  6  7  1  0
  7  8  1  0
  9  8  1  6
  9 10  1  0
  9 11  1  0
 11 12  1  0
 12 13  2  0
 12 14  1  0
 14 15  2  0
 15 16  1  0
 16 17  2  0
 17 18  1  0
 18 19  2  0
 19 20  1  0
  4 21  1  0
 21 22  2  0
 22 23  1  0
 23 24  2  0
 24 25  1  0
 25 26  2  0
 26 27  1  0
 27 28  2  0
 22  2  1  0
 28 23  1  0
 10  6  1  0
 19 14  1  0
 20  9  1  0
M  END
>  <HIPPO Pose ID>  (5) 
77362

>  <energy_score>  (5) 
-26.547215

>  <csv_name>  (5) 
primer_grip_n_pocket_fstein_bulkdock_input_split1000_batch000.csv

>  <fragmenstein_mode>  (5) 
expansion

>  <exports>  (5) 
['/opt/xchem-fragalysis-2/maxwin/BulkDock/OUTPUTS/primer_grip_n_pocket_fstein_bulkdock_input_split1000_batch000_217912.sdf']

>  <name>  (5) 
LKNJYPRQYNXVJG-AOMKIAJQSA-N

>  <ref_pdb>  (5) 
d0160a

>  <scratch_subdir>  (5) 
/opt/xchem-fragalysis-2/maxwin/BulkDock/SCRATCH/217912/C67386-P12

>  <ref_mols>  (5) 
d0160a,d1196a

>  <original ID>  (5) 
LKNJYPRQYNXVJG-AOMKIAJQSA-N

>  <fragmenstein_runtime>  (5) 
6.220066

>  <alias>  (5) 
None

>  <SLURM_JOB_ID>  (5) 
217912

>  <original SMILES>  (5) 
Cc1cn(C[C@H]2CC[C@@]3(C2)NC(=O)c2ccccc2N3)nc1-c1ccncc1

>  <tags>  (5) 
['Fragmenstein placed']

>  <inchikey>  (5) 
LKNJYPRQYNXVJG-AOMKIAJQSA-N

>  <SLURM_JOB_NAME>  (5) 
BulkDock.place:Flavi_NS5_RdRp:primer_grip_n_pocket_fstein_bulkdock_input_split1000_batch000

>  <fragmenstein_outcome>  (5) 
acceptable

>  <distance_score>  (5) 
0.621302

>  <HIPPO Compound ID>  (5) 
67386

>  <fragmenstein_error>  (5) 
None

$$$$
77364
     RDKit          3D

 28 32  0  0  0  0  0  0  0  0999 V2000
  -14.9376  -43.4627  -21.2811 C   0  0  0  0  0  0  0  0  0  0  0  0
  -14.4926  -42.0967  -21.6362 C   0  0  0  0  0  0  0  0  0  0  0  0
  -13.8665  -41.2296  -20.7664 C   0  0  0  0  0  0  0  0  0  0  0  0
  -13.3485  -40.2280  -21.5336 N   0  0  0  0  0  0  0  0  0  0  0  0
  -12.0378  -39.6693  -21.2500 C   0  0  0  0  0  0  0  0  0  0  0  0
  -11.6650  -38.1853  -21.3634 C   0  0  1  0  0  0  0  0  0  0  0  0
  -12.4140  -37.3473  -22.3864 C   0  0  0  0  0  0  0  0  0  0  0  0
  -13.3198  -36.4479  -21.5727 C   0  0  0  0  0  0  0  0  0  0  0  0
  -12.5036  -36.1348  -20.3140 C   0  0  1  0  0  0  0  0  0  0  0  0
  -11.7850  -37.4544  -20.0208 C   0  0  0  0  0  0  0  0  0  0  0  0
  -11.5856  -35.0401  -20.4967 N   0  0  0  0  0  0  0  0  0  0  0  0
  -12.0244  -33.7365  -20.4974 C   0  0  0  0  0  0  0  0  0  0  0  0
  -11.3520  -32.8309  -20.9812 O   0  0  0  0  0  0  0  0  0  0  0  0
  -13.3516  -33.5021  -19.8822 C   0  0  0  0  0  0  0  0  0  0  0  0
  -13.9569  -32.2506  -19.9194 C   0  0  0  0  0  0  0  0  0  0  0  0
  -15.2028  -32.0755  -19.3185 C   0  0  0  0  0  0  0  0  0  0  0  0
  -15.8318  -33.1351  -18.6726 C   0  0  0  0  0  0  0  0  0  0  0  0
  -15.2187  -34.3829  -18.6284 C   0  0  0  0  0  0  0  0  0  0  0  0
  -13.9910  -34.5846  -19.2650 C   0  0  0  0  0  0  0  0  0  0  0  0
  -13.3661  -35.8366  -19.1872 N   0  0  0  0  0  0  0  0  0  0  0  0
  -13.8633  -40.2438  -22.7855 N   0  0  0  0  0  0  0  0  0  0  0  0
  -14.5252  -41.4241  -22.9010 C   0  0  0  0  0  0  0  0  0  0  0  0
  -15.1660  -41.8912  -24.1661 C   0  0  0  0  0  0  0  0  0  0  0  0
  -14.8716  -41.3465  -25.4182 C   0  0  0  0  0  0  0  0  0  0  0  0
  -15.6818  -41.6193  -26.5152 C   0  0  0  0  0  0  0  0  0  0  0  0
  -16.5986  -42.5968  -26.5176 N   0  0  0  0  0  0  0  0  0  0  0  0
  -16.7587  -43.2389  -25.3458 C   0  0  0  0  0  0  0  0  0  0  0  0
  -16.1473  -42.8758  -24.1587 C   0  0  0  0  0  0  0  0  0  0  0  0
  1  2  1  0
  2  3  2  0
  3  4  1  0
  4  5  1  0
  6  5  1  1
  6  7  1  0
  7  8  1  0
  9  8  1  6
  9 10  1  0
  9 11  1  0
 11 12  1  0
 12 13  2  0
 12 14  1  0
 14 15  2  0
 15 16  1  0
 16 17  2  0
 17 18  1  0
 18 19  2  0
 19 20  1  0
  4 21  1  0
 21 22  2  0
 22 23  1  0
 23 24  2  0
 24 25  1  0
 25 26  2  0
 26 27  1  0
 27 28  2  0
 22  2  1  0
 28 23  1  0
 10  6  1  0
 19 14  1  0
 20  9  1  0
M  END
>  <HIPPO Pose ID>  (6) 
77364

>  <energy_score>  (6) 
-18.282625

>  <csv_name>  (6) 
primer_grip_n_pocket_fstein_bulkdock_input_split1000_batch000.csv

>  <fragmenstein_mode>  (6) 
expansion

>  <exports>  (6) 
['/opt/xchem-fragalysis-2/maxwin/BulkDock/OUTPUTS/primer_grip_n_pocket_fstein_bulkdock_input_split1000_batch000_217912.sdf']

>  <name>  (6) 
LKNJYPRQYNXVJG-AOMKIAJQSA-N

>  <ref_pdb>  (6) 
d1196a

>  <scratch_subdir>  (6) 
/opt/xchem-fragalysis-2/maxwin/BulkDock/SCRATCH/217912/C67386-P78

>  <ref_mols>  (6) 
d0160a,d1196a

>  <original ID>  (6) 
LKNJYPRQYNXVJG-AOMKIAJQSA-N

>  <fragmenstein_runtime>  (6) 
7.814237

>  <alias>  (6) 
None

>  <SLURM_JOB_ID>  (6) 
217912

>  <original SMILES>  (6) 
Cc1cn(C[C@H]2CC[C@@]3(C2)NC(=O)c2ccccc2N3)nc1-c1ccncc1

>  <tags>  (6) 
['Fragmenstein placed']

>  <inchikey>  (6) 
LKNJYPRQYNXVJG-AOMKIAJQSA-N

>  <SLURM_JOB_NAME>  (6) 
BulkDock.place:Flavi_NS5_RdRp:primer_grip_n_pocket_fstein_bulkdock_input_split1000_batch000

>  <fragmenstein_outcome>  (6) 
acceptable

>  <distance_score>  (6) 
0.992787

>  <HIPPO Compound ID>  (6) 
67386

>  <fragmenstein_error>  (6) 
None

$$$$
77379
     RDKit          3D

 17 19  0  0  0  0  0  0  0  0999 V2000
  -15.8203  -42.9407  -22.3177 C   0  0  0  0  0  0  0  0  0  0  0  0
  -14.8261  -41.8206  -22.5880 C   0  0  1  0  0  0  0  0  0  0  0  0
  -15.3949  -40.6242  -23.3532 C   0  0  2  0  0  0  0  0  0  0  0  0
  -15.9537  -40.8527  -24.7395 C   0  0  0  0  0  0  0  0  0  0  0  0
  -15.3650  -40.4108  -25.9226 C   0  0  0  0  0  0  0  0  0  0  0  0
  -16.0474  -40.6086  -27.1242 C   0  0  0  0  0  0  0  0  0  0  0  0
  -17.2575  -41.2060  -27.2408 N   0  0  0  0  0  0  0  0  0  0  0  0
  -17.8043  -41.6364  -26.0935 C   0  0  0  0  0  0  0  0  0  0  0  0
  -17.2089  -41.4776  -24.8520 C   0  0  0  0  0  0  0  0  0  0  0  0
  -14.2640  -39.6790  -23.2069 N   0  0  0  0  0  0  0  0  0  0  0  0
  -13.9045  -39.7597  -21.7663 N   0  0  0  0  0  0  0  0  0  0  0  0
  -12.4466  -39.7424  -21.5461 C   0  0  0  0  0  0  0  0  0  0  0  0
  -12.0260  -41.0871  -21.1706 N   0  0  0  0  0  0  0  0  0  0  0  0
  -13.1955  -41.6514  -20.4957 C   0  0  2  0  0  0  0  0  0  0  0  0
  -13.2348  -43.1077  -20.2989 C   0  0  0  0  0  0  0  0  0  0  0  0
  -13.3941  -44.2243  -20.0179 N   0  0  0  0  0  0  0  0  0  0  0  0
  -14.3591  -41.1087  -21.3102 C   0  0  2  0  0  0  0  0  0  0  0  0
  2  1  1  1
  2  3  1  0
  3  4  1  6
  4  5  2  0
  5  6  1  0
  6  7  2  0
  7  8  1  0
  8  9  2  0
  3 10  1  0
 10 11  1  0
 11 12  1  0
 12 13  1  0
 13 14  1  0
 14 15  1  6
 15 16  3  0
 14 17  1  0
 17  2  1  0
  9  4  1  0
 17 11  1  6
M  END
>  <HIPPO Pose ID>  (7) 
77379

>  <energy_score>  (7) 
-29.446818

>  <csv_name>  (7) 
primer_grip_n_pocket_fstein_bulkdock_input_split1000_batch000.csv

>  <fragmenstein_mode>  (7) 
expansion

>  <exports>  (7) 
['/opt/xchem-fragalysis-2/maxwin/BulkDock/OUTPUTS/primer_grip_n_pocket_fstein_bulkdock_input_split1000_batch000_217912.sdf']

>  <name>  (7) 
BIZVMRAHNALIRK-GMNPVEAJSA-N

>  <ref_pdb>  (7) 
d0160a

>  <scratch_subdir>  (7) 
/opt/xchem-fragalysis-2/maxwin/BulkDock/SCRATCH/217912/C67389-P12

>  <ref_mols>  (7) 
d0160a,z0875c

>  <original ID>  (7) 
BIZVMRAHNALIRK-GMNPVEAJSA-N

>  <fragmenstein_runtime>  (7) 
2.071797

>  <alias>  (7) 
None

>  <SLURM_JOB_ID>  (7) 
217912

>  <original SMILES>  (7) 
C[C@@H]1[C@H]2[C@@H](C#N)NCN2N[C@H]1c1ccncc1

>  <tags>  (7) 
['Fragmenstein placed']

>  <inchikey>  (7) 
BIZVMRAHNALIRK-GMNPVEAJSA-N

>  <SLURM_JOB_NAME>  (7) 
BulkDock.place:Flavi_NS5_RdRp:primer_grip_n_pocket_fstein_bulkdock_input_split1000_batch000

>  <fragmenstein_outcome>  (7) 
acceptable

>  <distance_score>  (7) 
0.859577

>  <HIPPO Compound ID>  (7) 
67389

>  <fragmenstein_error>  (7) 
None

$$$$
77387
     RDKit          3D

 44 48  0  0  0  0  0  0  0  0999 V2000
  -14.6965  -38.4429  -16.9891 C   0  0  0  0  0  0  0  0  0  0  0  0
  -14.0000  -38.8330  -15.8100 O   0  0  0  0  0  0  0  0  0  0  0  0
  -14.5437  -39.8478  -15.0722 C   0  0  0  0  0  0  0  0  0  0  0  0
  -13.8053  -40.2414  -13.9525 C   0  0  0  0  0  0  0  0  0  0  0  0
  -14.2397  -41.2936  -13.1373 C   0  0  0  0  0  0  0  0  0  0  0  0
  -15.4134  -41.9796  -13.4457 C   0  0  0  0  0  0  0  0  0  0  0  0
  -16.1486  -41.5843  -14.5605 C   0  0  0  0  0  0  0  0  0  0  0  0
  -17.5770  -42.5039  -15.0838 S   0  0  0  0  0  0  0  0  0  0  0  0
  -17.6172  -43.7544  -14.3656 O   0  0  0  0  0  0  0  0  0  0  0  0
  -18.6893  -41.5840  -15.1239 O   0  0  0  0  0  0  0  0  0  0  0  0
  -17.1401  -42.7946  -16.6355 N   0  0  0  0  0  0  0  0  0  0  0  0
  -16.3367  -43.9652  -17.2507 C   0  0  0  0  0  0  0  0  0  0  0  0
  -15.9288  -44.9411  -16.7607 O   0  0  0  0  0  0  0  0  0  0  0  0
  -16.0152  -43.6578  -18.6359 C   0  0  0  0  0  0  0  0  0  0  0  0
  -16.8934  -44.1324  -19.5864 C   0  0  0  0  0  0  0  0  0  0  0  0
  -16.5974  -43.9701  -20.9418 C   0  0  0  0  0  0  0  0  0  0  0  0
  -17.3894  -44.8192  -21.8156 C   0  0  0  0  0  0  0  0  0  0  0  0
  -17.5355  -46.1883  -21.6796 C   0  0  0  0  0  0  0  0  0  0  0  0
  -18.3590  -46.7268  -22.6880 C   0  0  0  0  0  0  0  0  0  0  0  0
  -18.7810  -45.7550  -23.5639 C   0  0  0  0  0  0  0  0  0  0  0  0
  -19.5353  -46.0133  -24.7288 C   0  0  0  0  0  0  0  0  0  0  0  0
  -20.1406  -46.2969  -25.7198 C   0  0  0  0  0  0  0  0  0  0  0  0
  -20.8061  -46.6738  -26.9449 C   0  0  0  0  0  0  0  0  0  0  0  0
  -21.8898  -45.7818  -27.1686 O   0  0  0  0  0  0  0  0  0  0  0  0
  -18.3623  -44.1985  -23.0577 S   0  0  0  0  0  0  0  0  0  0  0  0
  -15.4557  -43.2411  -21.3425 C   0  0  0  0  0  0  0  0  0  0  0  0
  -15.1542  -42.8622  -22.7908 C   0  0  2  0  0  0  0  0  0  0  0  0
  -14.1778  -43.8107  -23.4389 C   0  0  0  0  0  0  0  0  0  0  0  0
  -14.7464  -41.3867  -22.8902 C   0  0  0  0  0  0  0  0  0  0  0  0
  -13.8619  -40.6223  -22.1417 C   0  0  0  0  0  0  0  0  0  0  0  0
  -13.8501  -39.3707  -22.6670 N   0  0  0  0  0  0  0  0  0  0  0  0
  -14.5977  -39.2504  -23.7557 N   0  0  0  0  0  0  0  0  0  0  0  0
  -15.1440  -40.4645  -23.9312 C   0  0  0  0  0  0  0  0  0  0  0  0
  -15.9988  -40.7044  -25.0892 C   0  0  0  0  0  0  0  0  0  0  0  0
  -17.2918  -41.1960  -24.9385 C   0  0  0  0  0  0  0  0  0  0  0  0
  -18.0505  -41.4271  -26.0737 C   0  0  0  0  0  0  0  0  0  0  0  0
  -17.6248  -41.1806  -27.3300 N   0  0  0  0  0  0  0  0  0  0  0  0
  -16.3751  -40.6734  -27.4459 C   0  0  0  0  0  0  0  0  0  0  0  0
  -15.5377  -40.4175  -26.3717 C   0  0  0  0  0  0  0  0  0  0  0  0
  -14.5111  -42.9594  -20.3393 C   0  0  0  0  0  0  0  0  0  0  0  0
  -14.7981  -43.0820  -18.9863 C   0  0  0  0  0  0  0  0  0  0  0  0
  -13.9666  -42.6743  -17.9839 O   0  0  0  0  0  0  0  0  0  0  0  0
  -12.8370  -41.8858  -18.3576 C   0  0  0  0  0  0  0  0  0  0  0  0
  -15.7341  -40.5058  -15.3591 C   0  0  0  0  0  0  0  0  0  0  0  0
  1  2  1  0
  2  3  1  0
  3  4  2  0
  4  5  1  0
  5  6  2  0
  6  7  1  0
  7  8  1  0
  8  9  2  0
  8 10  2  0
  8 11  1  0
 11 12  1  0
 12 13  2  0
 12 14  1  0
 14 15  2  0
 15 16  1  0
 16 17  1  0
 17 18  2  0
 18 19  1  0
 19 20  2  0
 20 21  1  0
 21 22  3  0
 22 23  1  0
 23 24  1  0
 20 25  1  0
 16 26  2  0
 26 27  1  0
 27 28  1  1
 27 29  1  0
 29 30  2  0
 30 31  1  0
 31 32  1  0
 32 33  2  0
 33 34  1  0
 34 35  2  0
 35 36  1  0
 36 37  2  0
 37 38  1  0
 38 39  2  0
 26 40  1  0
 40 41  2  0
 41 42  1  0
 42 43  1  0
  7 44  2  0
 44  3  1  0
 41 14  1  0
 25 17  1  0
 33 29  1  0
 39 34  1  0
M  END
>  <HIPPO Pose ID>  (8) 
77387

>  <energy_score>  (8) 
-96.988308

>  <csv_name>  (8) 
primer_grip_n_pocket_fstein_bulkdock_input_split1000_batch000.csv

>  <fragmenstein_mode>  (8) 
expansion

>  <exports>  (8) 
['/opt/xchem-fragalysis-2/maxwin/BulkDock/OUTPUTS/primer_grip_n_pocket_fstein_bulkdock_input_split1000_batch000_217912.sdf']

>  <name>  (8) 
TUHJHFXLPDHAOH-FQEVSTJZSA-N

>  <ref_pdb>  (8) 
d0160a

>  <scratch_subdir>  (8) 
/opt/xchem-fragalysis-2/maxwin/BulkDock/SCRATCH/217912/C67390-P12

>  <ref_mols>  (8) 
d0160a,5i3p-a,5k5m-a

>  <original ID>  (8) 
TUHJHFXLPDHAOH-FQEVSTJZSA-N

>  <fragmenstein_runtime>  (8) 
16.078365

>  <alias>  (8) 
None

>  <SLURM_JOB_ID>  (8) 
217912

>  <original SMILES>  (8) 
COc1cccc(S(=O)(=O)NC(=O)c2cc(-c3ccc(C#CCO)s3)c([C@H](C)c3c[nH]nc3-c3ccncc3)cc2OC)c1

>  <tags>  (8) 
['Fragmenstein placed']

>  <inchikey>  (8) 
TUHJHFXLPDHAOH-FQEVSTJZSA-N

>  <SLURM_JOB_NAME>  (8) 
BulkDock.place:Flavi_NS5_RdRp:primer_grip_n_pocket_fstein_bulkdock_input_split1000_batch000

>  <fragmenstein_outcome>  (8) 
acceptable

>  <distance_score>  (8) 
0.740139

>  <HIPPO Compound ID>  (8) 
67390

>  <fragmenstein_error>  (8) 
None

$$$$
77437
     RDKit          3D

 28 31  0  0  0  0  0  0  0  0999 V2000
  -18.7813  -42.2119  -17.6134 O   0  0  0  0  0  0  0  0  0  0  0  0
  -17.9351  -42.4172  -16.7602 C   0  0  0  0  0  0  0  0  0  0  0  0
  -18.0735  -41.8759  -15.5299 O   0  0  0  0  0  0  0  0  0  0  0  0
  -16.7001  -43.2868  -16.8483 C   0  0  0  0  0  0  0  0  0  0  0  0
  -16.2151  -43.5488  -18.2537 C   0  0  0  0  0  0  0  0  0  0  0  0
  -14.9890  -43.0556  -18.7062 C   0  0  0  0  0  0  0  0  0  0  0  0
  -14.6308  -43.1741  -20.0527 C   0  0  0  0  0  0  0  0  0  0  0  0
  -15.5068  -43.7373  -20.9790 C   0  0  0  0  0  0  0  0  0  0  0  0
  -15.3494  -43.7021  -22.3378 O   0  0  0  0  0  0  0  0  0  0  0  0
  -14.2444  -43.0061  -22.9113 C   0  0  0  0  0  0  0  0  0  0  0  0
  -14.3065  -41.4985  -22.8544 C   0  0  0  0  0  0  0  0  0  0  0  0
  -13.6369  -40.6685  -21.9694 C   0  0  0  0  0  0  0  0  0  0  0  0
  -13.8950  -39.3941  -22.3536 N   0  0  0  0  0  0  0  0  0  0  0  0
  -14.6202  -39.3121  -23.4682 N   0  0  0  0  0  0  0  0  0  0  0  0
  -14.9157  -40.5874  -23.7800 C   0  0  0  0  0  0  0  0  0  0  0  0
  -15.7383  -40.8815  -24.9493 C   0  0  0  0  0  0  0  0  0  0  0  0
  -15.5173  -40.2285  -26.1606 C   0  0  0  0  0  0  0  0  0  0  0  0
  -16.3466  -40.5270  -27.2310 C   0  0  0  0  0  0  0  0  0  0  0  0
  -17.3817  -41.3968  -27.1728 N   0  0  0  0  0  0  0  0  0  0  0  0
  -17.5708  -42.0093  -25.9843 C   0  0  0  0  0  0  0  0  0  0  0  0
  -16.7882  -41.7900  -24.8634 C   0  0  0  0  0  0  0  0  0  0  0  0
  -16.6594  -44.3830  -20.5004 C   0  0  0  0  0  0  0  0  0  0  0  0
  -17.4537  -45.2623  -21.3533 C   0  0  0  0  0  0  0  0  0  0  0  0
  -17.6859  -46.6094  -21.1634 C   0  0  0  0  0  0  0  0  0  0  0  0
  -18.3548  -47.1888  -22.2676 C   0  0  0  0  0  0  0  0  0  0  0  0
  -18.6014  -46.2678  -23.2629 C   0  0  0  0  0  0  0  0  0  0  0  0
  -18.2170  -44.6862  -22.7692 S   0  0  0  0  0  0  0  0  0  0  0  0
  -17.0046  -44.2805  -19.1446 C   0  0  0  0  0  0  0  0  0  0  0  0
  1  2  2  0
  2  3  1  0
  2  4  1  0
  4  5  1  0
  5  6  2  0
  6  7  1  0
  7  8  2  0
  8  9  1  0
  9 10  1  0
 10 11  1  0
 11 12  2  0
 12 13  1  0
 13 14  1  0
 14 15  2  0
 15 16  1  0
 16 17  2  0
 17 18  1  0
 18 19  2  0
 19 20  1  0
 20 21  2  0
  8 22  1  0
 22 23  1  0
 23 24  2  0
 24 25  1  0
 25 26  2  0
 26 27  1  0
 22 28  2  0
 28  5  1  0
 15 11  1  0
 21 16  1  0
 27 23  1  0
M  END
>  <HIPPO Pose ID>  (9) 
77437

>  <energy_score>  (9) 
-249.657298

>  <csv_name>  (9) 
primer_grip_n_pocket_fstein_bulkdock_input_split1000_batch000.csv

>  <fragmenstein_mode>  (9) 
expansion

>  <exports>  (9) 
['/opt/xchem-fragalysis-2/maxwin/BulkDock/OUTPUTS/primer_grip_n_pocket_fstein_bulkdock_input_split1000_batch000_217912.sdf']

>  <name>  (9) 
TXNKXRMROVSDIW-UHFFFAOYSA-N

>  <ref_pdb>  (9) 
d0160a

>  <scratch_subdir>  (9) 
/opt/xchem-fragalysis-2/maxwin/BulkDock/SCRATCH/217912/C67393-P12

>  <ref_mols>  (9) 
d0160a,6h80-a,6h9r-a

>  <original ID>  (9) 
TXNKXRMROVSDIW-UHFFFAOYSA-N

>  <fragmenstein_runtime>  (9) 
4.691542

>  <alias>  (9) 
None

>  <SLURM_JOB_ID>  (9) 
217912

>  <original SMILES>  (9) 
O=C(O)Cc1ccc(OCc2c[nH]nc2-c2ccncc2)c(-c2cccs2)c1

>  <tags>  (9) 
['Fragmenstein placed']

>  <inchikey>  (9) 
TXNKXRMROVSDIW-UHFFFAOYSA-N

>  <SLURM_JOB_NAME>  (9) 
BulkDock.place:Flavi_NS5_RdRp:primer_grip_n_pocket_fstein_bulkdock_input_split1000_batch000

>  <fragmenstein_outcome>  (9) 
acceptable

>  <distance_score>  (9) 
1.01667

>  <HIPPO Compound ID>  (9) 
67393

>  <fragmenstein_error>  (9) 
None

$$$$
77478
     RDKit          3D

 36 39  0  0  0  0  0  0  0  0999 V2000
  -12.8563  -42.2907  -18.5525 C   0  0  0  0  0  0  0  0  0  0  0  0
  -14.0929  -42.8125  -19.2346 C   0  0  0  0  0  0  0  0  0  0  0  0
  -14.0038  -42.9927  -20.6116 C   0  0  0  0  0  0  0  0  0  0  0  0
  -15.1363  -43.2167  -21.3967 C   0  0  0  0  0  0  0  0  0  0  0  0
  -15.0753  -42.8215  -22.8628 C   0  0  2  0  0  0  0  0  0  0  0  0
  -14.2194  -43.7464  -23.6893 C   0  0  0  0  0  0  0  0  0  0  0  0
  -14.7031  -41.3336  -22.9686 C   0  0  0  0  0  0  0  0  0  0  0  0
  -13.9129  -40.5164  -22.1704 C   0  0  0  0  0  0  0  0  0  0  0  0
  -13.9203  -39.2746  -22.7146 N   0  0  0  0  0  0  0  0  0  0  0  0
  -14.6244  -39.1967  -23.8362 N   0  0  0  0  0  0  0  0  0  0  0  0
  -15.1196  -40.4316  -24.0148 C   0  0  0  0  0  0  0  0  0  0  0  0
  -15.9731  -40.7032  -25.1643 C   0  0  0  0  0  0  0  0  0  0  0  0
  -17.2574  -41.2146  -24.9981 C   0  0  0  0  0  0  0  0  0  0  0  0
  -18.0247  -41.4578  -26.1236 C   0  0  0  0  0  0  0  0  0  0  0  0
  -17.6136  -41.2083  -27.3835 N   0  0  0  0  0  0  0  0  0  0  0  0
  -16.3707  -40.6877  -27.5135 C   0  0  0  0  0  0  0  0  0  0  0  0
  -15.5265  -40.4165  -26.4498 C   0  0  0  0  0  0  0  0  0  0  0  0
  -16.2483  -43.7868  -20.7581 C   0  0  0  0  0  0  0  0  0  0  0  0
  -17.2045  -44.6480  -21.4690 C   0  0  0  0  0  0  0  0  0  0  0  0
  -17.3889  -46.0091  -21.2946 C   0  0  0  0  0  0  0  0  0  0  0  0
  -18.2122  -46.5698  -22.3110 C   0  0  0  0  0  0  0  0  0  0  0  0
  -18.6296  -45.6179  -23.2164 C   0  0  0  0  0  0  0  0  0  0  0  0
  -19.3487  -45.8812  -24.4203 C   0  0  0  0  0  0  0  0  0  0  0  0
  -19.9791  -46.1473  -25.4068 C   0  0  0  0  0  0  0  0  0  0  0  0
  -20.7818  -46.5173  -26.5673 C   0  0  0  0  0  0  0  0  0  0  0  0
  -22.0359  -45.8419  -26.5221 O   0  0  0  0  0  0  0  0  0  0  0  0
  -18.2690  -44.0522  -22.6653 S   0  0  0  0  0  0  0  0  0  0  0  0
  -16.3261  -43.7092  -19.3543 C   0  0  0  0  0  0  0  0  0  0  0  0
  -15.3154  -43.0827  -18.5967 C   0  0  0  0  0  0  0  0  0  0  0  0
  -15.4574  -42.7964  -17.1218 C   0  0  0  0  0  0  0  0  0  0  0  0
  -14.4746  -42.6182  -16.5186 O   0  0  0  0  0  0  0  0  0  0  0  0
  -16.9305  -42.8920  -16.6381 N   0  0  0  0  0  0  0  0  0  0  0  0
  -17.5526  -42.8812  -15.1311 S   0  0  0  0  0  0  0  0  0  0  0  0
  -16.5221  -41.7179  -14.2588 C   0  0  0  0  0  0  0  0  0  0  0  0
  -17.3388  -44.2069  -14.5979 O   0  0  0  0  0  0  0  0  0  0  0  0
  -18.8776  -42.3209  -15.2582 O   0  0  0  0  0  0  0  0  0  0  0  0
  1  2  1  0
  2  3  2  0
  3  4  1  0
  4  5  1  0
  5  6  1  6
  5  7  1  0
  7  8  2  0
  8  9  1  0
  9 10  1  0
 10 11  2  0
 11 12  1  0
 12 13  2  0
 13 14  1  0
 14 15  2  0
 15 16  1  0
 16 17  2  0
  4 18  2  0
 18 19  1  0
 19 20  2  0
 20 21  1  0
 21 22  2  0
 22 23  1  0
 23 24  3  0
 24 25  1  0
 25 26  1  0
 22 27  1  0
 18 28  1  0
 28 29  2  0
 29 30  1  0
 30 31  2  0
 30 32  1  0
 32 33  1  0
 33 34  1  0
 33 35  2  0
 33 36  2  0
 29  2  1  0
 11  7  1  0
 17 12  1  0
 27 19  1  0
M  END
>  <HIPPO Pose ID>  (10) 
77478

>  <energy_score>  (10) 
-130.76053

>  <csv_name>  (10) 
primer_grip_n_pocket_fstein_bulkdock_input_split1000_batch000.csv

>  <fragmenstein_mode>  (10) 
expansion

>  <exports>  (10) 
['/opt/xchem-fragalysis-2/maxwin/BulkDock/OUTPUTS/primer_grip_n_pocket_fstein_bulkdock_input_split1000_batch000_217912.sdf']

>  <name>  (10) 
PXZGBQYNYITACE-KRWDZBQOSA-N

>  <ref_pdb>  (10) 
d0160a

>  <scratch_subdir>  (10) 
/opt/xchem-fragalysis-2/maxwin/BulkDock/SCRATCH/217912/C67398-P12

>  <ref_mols>  (10) 
d0160a,5hmz-a

>  <original ID>  (10) 
PXZGBQYNYITACE-KRWDZBQOSA-N

>  <fragmenstein_runtime>  (10) 
12.68977

>  <alias>  (10) 
None

>  <SLURM_JOB_ID>  (10) 
217912

>  <original SMILES>  (10) 
Cc1cc([C@H](C)c2c[nH]nc2-c2ccncc2)c(-c2ccc(C#CCO)s2)cc1C(=O)NS(C)(=O)=O

>  <tags>  (10) 
['Fragmenstein placed']

>  <inchikey>  (10) 
PXZGBQYNYITACE-KRWDZBQOSA-N

>  <SLURM_JOB_NAME>  (10) 
BulkDock.place:Flavi_NS5_RdRp:primer_grip_n_pocket_fstein_bulkdock_input_split1000_batch000

>  <fragmenstein_outcome>  (10) 
acceptable

>  <distance_score>  (10) 
0.736818

>  <HIPPO Compound ID>  (10) 
67398

>  <fragmenstein_error>  (10) 
None

$$$$
77527
     RDKit          3D

 30 32  0  0  0  0  0  0  0  0999 V2000
  -17.1689  -46.9553  -20.7176 C   0  0  0  0  0  0  0  0  0  0  0  0
  -18.0111  -45.8475  -20.1693 C   0  0  0  0  0  0  0  0  0  0  0  0
  -18.8628  -46.1065  -18.7283 S   0  0  0  0  0  0  0  0  0  0  0  0
  -19.5730  -44.5482  -18.7377 C   0  0  0  0  0  0  0  0  0  0  0  0
  -20.5852  -44.1626  -17.6696 C   0  0  2  0  0  0  0  0  0  0  0  0
  -20.0379  -43.1205  -16.7048 C   0  0  0  0  0  0  0  0  0  0  0  0
  -21.0078  -45.3287  -16.9318 N   0  0  0  0  0  0  0  0  0  0  0  0
  -22.4264  -45.8421  -16.5912 C   0  0  0  0  0  0  0  0  0  0  0  0
  -23.4703  -45.3625  -16.7876 O   0  0  0  0  0  0  0  0  0  0  0  0
  -22.2329  -47.1865  -15.8647 C   0  0  0  0  0  0  0  0  0  0  0  0
  -23.5181  -47.6070  -15.1686 C   0  0  0  0  0  0  0  0  0  0  0  0
  -21.8029  -48.2762  -16.8398 C   0  0  0  0  0  0  0  0  0  0  0  0
  -19.0588  -43.7821  -19.7816 C   0  0  0  0  0  0  0  0  0  0  0  0
  -19.3098  -42.3164  -19.9935 C   0  0  0  0  0  0  0  0  0  0  0  0
  -18.2031  -44.5654  -20.6534 C   0  0  0  0  0  0  0  0  0  0  0  0
  -17.5399  -44.0055  -21.8798 C   0  0  0  0  0  0  0  0  0  0  0  0
  -17.6912  -44.8863  -23.1229 C   0  0  0  0  0  0  0  0  0  0  0  0
  -17.6673  -44.1197  -24.3631 N   0  0  0  0  0  0  0  0  0  0  0  0
  -16.6753  -43.2462  -24.6378 C   0  0  0  0  0  0  0  0  0  0  0  0
  -15.3845  -43.1435  -24.0770 C   0  0  0  0  0  0  0  0  0  0  0  0
  -14.8232  -41.9889  -24.5762 C   0  0  0  0  0  0  0  0  0  0  0  0
  -15.6815  -41.4677  -25.5057 N   0  0  0  0  0  0  0  0  0  0  0  0
  -15.4200  -40.2984  -26.3319 C   0  0  0  0  0  0  0  0  0  0  0  0
  -16.4597  -39.2394  -26.1149 C   0  0  0  0  0  0  0  0  0  0  0  0
  -16.5143  -38.4867  -24.9388 C   0  0  0  0  0  0  0  0  0  0  0  0
  -17.5012  -37.5232  -24.7913 C   0  0  0  0  0  0  0  0  0  0  0  0
  -18.3989  -37.3546  -25.8304 C   0  0  0  0  0  0  0  0  0  0  0  0
  -18.4133  -38.0827  -26.9660 N   0  0  0  0  0  0  0  0  0  0  0  0
  -17.4301  -39.0036  -27.0833 C   0  0  0  0  0  0  0  0  0  0  0  0
  -16.8179  -42.2311  -25.5438 C   0  0  0  0  0  0  0  0  0  0  0  0
  1  2  1  0
  2  3  1  0
  3  4  1  0
  4  5  1  0
  5  6  1  1
  5  7  1  0
  7  8  1  0
  8  9  2  0
  8 10  1  0
 10 11  1  0
 10 12  1  0
  4 13  2  0
 13 14  1  0
 13 15  1  0
 15 16  1  0
 16 17  1  0
 17 18  1  0
 18 19  1  0
 19 20  1  0
 20 21  2  0
 21 22  1  0
 22 23  1  0
 23 24  1  0
 24 25  2  0
 25 26  1  0
 26 27  2  0
 27 28  1  0
 28 29  2  0
 22 30  1  0
 15  2  2  0
 30 19  2  0
 29 24  1  0
M  END
>  <HIPPO Pose ID>  (11) 
77527

>  <energy_score>  (11) 
-44.814416

>  <csv_name>  (11) 
primer_grip_n_pocket_fstein_bulkdock_input_split1000_batch000.csv

>  <fragmenstein_mode>  (11) 
expansion

>  <exports>  (11) 
['/opt/xchem-fragalysis-2/maxwin/BulkDock/OUTPUTS/primer_grip_n_pocket_fstein_bulkdock_input_split1000_batch000_217912.sdf']

>  <name>  (11) 
MQQPLOYUSOAAKC-SFHVURJKSA-N

>  <ref_pdb>  (11) 
d0191a

>  <scratch_subdir>  (11) 
/opt/xchem-fragalysis-2/maxwin/BulkDock/SCRATCH/217912/C67404-P19

>  <ref_mols>  (11) 
d0191a,d0264a

>  <original ID>  (11) 
MQQPLOYUSOAAKC-SFHVURJKSA-N

>  <fragmenstein_runtime>  (11) 
96.404382

>  <alias>  (11) 
None

>  <SLURM_JOB_ID>  (11) 
217912

>  <original SMILES>  (11) 
Cc1sc([C@H](C)NC(=O)C(C)C)c(C)c1CCNc1ccn(Cc2cccnc2)c1

>  <tags>  (11) 
['Fragmenstein placed']

>  <inchikey>  (11) 
MQQPLOYUSOAAKC-SFHVURJKSA-N

>  <SLURM_JOB_NAME>  (11) 
BulkDock.place:Flavi_NS5_RdRp:primer_grip_n_pocket_fstein_bulkdock_input_split1000_batch000

>  <fragmenstein_outcome>  (11) 
acceptable

>  <distance_score>  (11) 
0.760951

>  <HIPPO Compound ID>  (11) 
67404

>  <fragmenstein_error>  (11) 
None

$$$$
77544
     RDKit          3D

 24 27  0  0  0  0  0  0  0  0999 V2000
  -17.9560  -37.5610  -24.6646 C   0  0  0  0  0  0  0  0  0  0  0  0
  -18.6909  -37.5878  -25.8371 C   0  0  0  0  0  0  0  0  0  0  0  0
  -18.3373  -38.2750  -26.9410 N   0  0  0  0  0  0  0  0  0  0  0  0
  -17.1846  -38.9851  -26.8592 C   0  0  0  0  0  0  0  0  0  0  0  0
  -16.3697  -39.0226  -25.7283 C   0  0  0  0  0  0  0  0  0  0  0  0
  -15.1185  -39.8483  -25.6875 C   0  0  0  0  0  0  0  0  0  0  0  0
  -15.3808  -41.1704  -25.1400 N   0  0  0  0  0  0  0  0  0  0  0  0
  -15.9297  -42.1905  -25.8632 C   0  0  0  0  0  0  0  0  0  0  0  0
  -15.9047  -43.3140  -25.0837 C   0  0  0  0  0  0  0  0  0  0  0  0
  -15.3082  -42.9698  -23.8519 C   0  0  0  0  0  0  0  0  0  0  0  0
  -15.1193  -43.8990  -22.8986 N   0  0  0  0  0  0  0  0  0  0  0  0
  -14.7800  -43.8856  -21.5320 C   0  0  0  0  0  0  0  0  0  0  0  0
  -13.8593  -42.9779  -21.0132 C   0  0  0  0  0  0  0  0  0  0  0  0
  -13.4216  -43.0955  -19.6964 C   0  0  0  0  0  0  0  0  0  0  0  0
  -13.9316  -44.1170  -18.9169 C   0  0  0  0  0  0  0  0  0  0  0  0
  -14.8477  -45.0075  -19.3471 N   0  0  0  0  0  0  0  0  0  0  0  0
  -15.2911  -44.8524  -20.6303 C   0  0  0  0  0  0  0  0  0  0  0  0
  -16.2769  -45.7943  -21.0651 N   0  0  0  0  0  0  0  0  0  0  0  0
  -16.3978  -47.0819  -20.5747 C   0  0  0  0  0  0  0  0  0  0  0  0
  -17.2237  -47.7870  -21.4204 C   0  0  0  0  0  0  0  0  0  0  0  0
  -17.7819  -46.8726  -22.3334 C   0  0  0  0  0  0  0  0  0  0  0  0
  -17.2384  -45.6434  -22.0501 C   0  0  0  0  0  0  0  0  0  0  0  0
  -15.0493  -41.6211  -23.8812 C   0  0  0  0  0  0  0  0  0  0  0  0
  -16.7783  -38.2914  -24.6113 C   0  0  0  0  0  0  0  0  0  0  0  0
  1  2  2  0
  2  3  1  0
  3  4  2  0
  4  5  1  0
  5  6  1  0
  6  7  1  0
  7  8  1  0
  8  9  2  0
  9 10  1  0
 10 11  1  0
 11 12  1  0
 12 13  2  0
 13 14  1  0
 14 15  2  0
 15 16  1  0
 16 17  2  0
 17 18  1  0
 18 19  1  0
 19 20  2  0
 20 21  1  0
 21 22  2  0
 10 23  2  0
  5 24  2  0
 24  1  1  0
 23  7  1  0
 17 12  1  0
 22 18  1  0
M  END
>  <HIPPO Pose ID>  (12) 
77544

>  <energy_score>  (12) 
-24.338934

>  <csv_name>  (12) 
primer_grip_n_pocket_fstein_bulkdock_input_split1000_batch000.csv

>  <fragmenstein_mode>  (12) 
expansion

>  <exports>  (12) 
['/opt/xchem-fragalysis-2/maxwin/BulkDock/OUTPUTS/primer_grip_n_pocket_fstein_bulkdock_input_split1000_batch000_217912.sdf']

>  <name>  (12) 
LDGQOFRTSKTMJZ-UHFFFAOYSA-N

>  <ref_pdb>  (12) 
d0191a

>  <scratch_subdir>  (12) 
/opt/xchem-fragalysis-2/maxwin/BulkDock/SCRATCH/217912/C67405-P19

>  <ref_mols>  (12) 
d0191a,d0472a

>  <original ID>  (12) 
LDGQOFRTSKTMJZ-UHFFFAOYSA-N

>  <fragmenstein_runtime>  (12) 
4.486303

>  <alias>  (12) 
None

>  <SLURM_JOB_ID>  (12) 
217912

>  <original SMILES>  (12) 
c1cncc(Cn2ccc(Nc3cccnc3-n3cccc3)c2)c1

>  <tags>  (12) 
['Fragmenstein placed']

>  <inchikey>  (12) 
LDGQOFRTSKTMJZ-UHFFFAOYSA-N

>  <SLURM_JOB_NAME>  (12) 
BulkDock.place:Flavi_NS5_RdRp:primer_grip_n_pocket_fstein_bulkdock_input_split1000_batch000

>  <fragmenstein_outcome>  (12) 
acceptable

>  <distance_score>  (12) 
0.486996

>  <HIPPO Compound ID>  (12) 
67405

>  <fragmenstein_error>  (12) 
None

$$$$
77546
     RDKit          3D

 24 27  0  0  0  0  0  0  0  0999 V2000
  -17.8915  -37.2289  -24.4243 C   0  0  0  0  0  0  0  0  0  0  0  0
  -18.7282  -37.2046  -25.5276 C   0  0  0  0  0  0  0  0  0  0  0  0
  -18.4919  -37.8822  -26.6746 N   0  0  0  0  0  0  0  0  0  0  0  0
  -17.3548  -38.6267  -26.7003 C   0  0  0  0  0  0  0  0  0  0  0  0
  -16.4501  -38.7252  -25.6453 C   0  0  0  0  0  0  0  0  0  0  0  0
  -15.2282  -39.5942  -25.7304 C   0  0  0  0  0  0  0  0  0  0  0  0
  -15.5022  -40.9307  -25.2218 N   0  0  0  0  0  0  0  0  0  0  0  0
  -16.1311  -41.9095  -25.9408 C   0  0  0  0  0  0  0  0  0  0  0  0
  -16.1506  -43.0353  -25.1574 C   0  0  0  0  0  0  0  0  0  0  0  0
  -15.4928  -42.7453  -23.9377 C   0  0  0  0  0  0  0  0  0  0  0  0
  -15.3464  -43.6802  -22.9743 N   0  0  0  0  0  0  0  0  0  0  0  0
  -14.9044  -43.6909  -21.6324 C   0  0  0  0  0  0  0  0  0  0  0  0
  -13.9462  -42.7912  -21.1672 C   0  0  0  0  0  0  0  0  0  0  0  0
  -13.4287  -42.8998  -19.8781 C   0  0  0  0  0  0  0  0  0  0  0  0
  -13.8960  -43.9093  -19.0623 C   0  0  0  0  0  0  0  0  0  0  0  0
  -14.8393  -44.7934  -19.4333 N   0  0  0  0  0  0  0  0  0  0  0  0
  -15.3665  -44.6411  -20.6873 C   0  0  0  0  0  0  0  0  0  0  0  0
  -16.4112  -45.5590  -21.0151 N   0  0  0  0  0  0  0  0  0  0  0  0
  -16.5361  -46.8227  -20.4634 C   0  0  0  0  0  0  0  0  0  0  0  0
  -17.4710  -47.5175  -21.1929 C   0  0  0  0  0  0  0  0  0  0  0  0
  -18.0792  -46.6091  -22.0808 C   0  0  0  0  0  0  0  0  0  0  0  0
  -17.4488  -45.4000  -21.9144 C   0  0  0  0  0  0  0  0  0  0  0  0
  -15.1443  -41.4174  -23.9824 C   0  0  0  0  0  0  0  0  0  0  0  0
  -16.7407  -38.0058  -24.4846 C   0  0  0  0  0  0  0  0  0  0  0  0
  1  2  2  0
  2  3  1  0
  3  4  2  0
  4  5  1  0
  5  6  1  0
  6  7  1  0
  7  8  1  0
  8  9  2  0
  9 10  1  0
 10 11  1  0
 11 12  1  0
 12 13  2  0
 13 14  1  0
 14 15  2  0
 15 16  1  0
 16 17  2  0
 17 18  1  0
 18 19  1  0
 19 20  2  0
 20 21  1  0
 21 22  2  0
 10 23  2  0
  5 24  2  0
 24  1  1  0
 23  7  1  0
 17 12  1  0
 22 18  1  0
M  END
>  <HIPPO Pose ID>  (13) 
77546

>  <energy_score>  (13) 
-26.363773

>  <csv_name>  (13) 
primer_grip_n_pocket_fstein_bulkdock_input_split1000_batch000.csv

>  <fragmenstein_mode>  (13) 
expansion

>  <exports>  (13) 
['/opt/xchem-fragalysis-2/maxwin/BulkDock/OUTPUTS/primer_grip_n_pocket_fstein_bulkdock_input_split1000_batch000_217912.sdf']

>  <name>  (13) 
LDGQOFRTSKTMJZ-UHFFFAOYSA-N

>  <ref_pdb>  (13) 
d0472a

>  <scratch_subdir>  (13) 
/opt/xchem-fragalysis-2/maxwin/BulkDock/SCRATCH/217912/C67405-P42

>  <ref_mols>  (13) 
d0191a,d0472a

>  <original ID>  (13) 
LDGQOFRTSKTMJZ-UHFFFAOYSA-N

>  <fragmenstein_runtime>  (13) 
4.002896

>  <alias>  (13) 
None

>  <SLURM_JOB_ID>  (13) 
217912

>  <original SMILES>  (13) 
c1cncc(Cn2ccc(Nc3cccnc3-n3cccc3)c2)c1

>  <tags>  (13) 
['Fragmenstein placed']

>  <inchikey>  (13) 
LDGQOFRTSKTMJZ-UHFFFAOYSA-N

>  <SLURM_JOB_NAME>  (13) 
BulkDock.place:Flavi_NS5_RdRp:primer_grip_n_pocket_fstein_bulkdock_input_split1000_batch000

>  <fragmenstein_outcome>  (13) 
acceptable

>  <distance_score>  (13) 
0.524969

>  <HIPPO Compound ID>  (13) 
67405

>  <fragmenstein_error>  (13) 
None

$$$$
77551
     RDKit          3D

 30 34  0  0  0  0  0  0  0  0999 V2000
  -11.2109  -32.8838  -20.5826 O   0  0  0  0  0  0  0  0  0  0  0  0
  -11.8789  -33.8496  -20.2242 C   0  0  0  0  0  0  0  0  0  0  0  0
  -11.3725  -35.1345  -20.1931 N   0  0  0  0  0  0  0  0  0  0  0  0
  -12.2587  -36.2322  -20.4939 C   0  0  1  0  0  0  0  0  0  0  0  0
  -12.6323  -36.2302  -21.9851 C   0  0  0  0  0  0  0  0  0  0  0  0
  -12.0261  -37.5048  -22.5491 C   0  0  0  0  0  0  0  0  0  0  0  0
  -12.1319  -38.5086  -21.4288 C   0  0  2  0  0  0  0  0  0  0  0  0
  -13.5178  -39.2145  -21.2671 C   0  0  0  0  0  0  0  0  0  0  0  0
  -14.8071  -38.7326  -21.9967 C   0  0  0  0  0  0  0  0  0  0  0  0
  -14.7274  -38.8888  -23.4565 N   0  0  0  0  0  0  0  0  0  0  0  0
  -15.8710  -38.6412  -24.2588 C   0  0  0  0  0  0  0  0  0  0  0  0
  -16.7664  -37.6132  -23.9649 C   0  0  0  0  0  0  0  0  0  0  0  0
  -17.7936  -37.3126  -24.8564 C   0  0  0  0  0  0  0  0  0  0  0  0
  -18.0379  -37.9642  -26.0108 N   0  0  0  0  0  0  0  0  0  0  0  0
  -17.1589  -38.9438  -26.3014 C   0  0  0  0  0  0  0  0  0  0  0  0
  -16.0742  -39.3132  -25.4881 C   0  0  0  0  0  0  0  0  0  0  0  0
  -15.2357  -40.4709  -25.9580 C   0  0  0  0  0  0  0  0  0  0  0  0
  -15.5990  -41.6840  -25.2276 N   0  0  0  0  0  0  0  0  0  0  0  0
  -14.8729  -42.2582  -24.2180 C   0  0  0  0  0  0  0  0  0  0  0  0
  -15.5445  -43.3730  -23.7737 C   0  0  0  0  0  0  0  0  0  0  0  0
  -16.7272  -43.4770  -24.5379 C   0  0  0  0  0  0  0  0  0  0  0  0
  -16.7319  -42.4315  -25.4333 C   0  0  0  0  0  0  0  0  0  0  0  0
  -11.6569  -37.6333  -20.2443 C   0  0  0  0  0  0  0  0  0  0  0  0
  -13.4282  -36.1271  -19.6345 N   0  0  0  0  0  0  0  0  0  0  0  0
  -14.0202  -34.8693  -19.5352 C   0  0  0  0  0  0  0  0  0  0  0  0
  -15.3273  -34.7552  -19.0495 C   0  0  0  0  0  0  0  0  0  0  0  0
  -15.9150  -33.5028  -18.8931 C   0  0  0  0  0  0  0  0  0  0  0  0
  -15.1875  -32.3564  -19.1970 C   0  0  0  0  0  0  0  0  0  0  0  0
  -13.8753  -32.4540  -19.6543 C   0  0  0  0  0  0  0  0  0  0  0  0
  -13.2903  -33.7076  -19.8009 C   0  0  0  0  0  0  0  0  0  0  0  0
  1  2  2  0
  2  3  1  0
  3  4  1  0
  4  5  1  6
  5  6  1  0
  6  7  1  0
  7  8  1  1
  8  9  1  0
  9 10  1  0
 10 11  1  0
 11 12  2  0
 12 13  1  0
 13 14  2  0
 14 15  1  0
 15 16  2  0
 16 17  1  0
 17 18  1  0
 18 19  1  0
 19 20  2  0
 20 21  1  0
 21 22  2  0
  7 23  1  0
  4 24  1  0
 24 25  1  0
 25 26  2  0
 26 27  1  0
 27 28  2  0
 28 29  1  0
 29 30  2  0
 30  2  1  0
 23  4  1  0
 30 25  1  0
 16 11  1  0
 22 18  1  0
M  END
>  <HIPPO Pose ID>  (14) 
77551

>  <energy_score>  (14) 
-51.630915

>  <csv_name>  (14) 
primer_grip_n_pocket_fstein_bulkdock_input_split1000_batch000.csv

>  <fragmenstein_mode>  (14) 
expansion

>  <exports>  (14) 
['/opt/xchem-fragalysis-2/maxwin/BulkDock/OUTPUTS/primer_grip_n_pocket_fstein_bulkdock_input_split1000_batch000_217912.sdf']

>  <name>  (14) 
YBXQXXZXUPHLJW-KOSHJBKYSA-N

>  <ref_pdb>  (14) 
d0191a

>  <scratch_subdir>  (14) 
/opt/xchem-fragalysis-2/maxwin/BulkDock/SCRATCH/217912/C67408-P19

>  <ref_mols>  (14) 
d0191a,d1196a

>  <original ID>  (14) 
YBXQXXZXUPHLJW-KOSHJBKYSA-N

>  <fragmenstein_runtime>  (14) 
9.577045

>  <alias>  (14) 
None

>  <SLURM_JOB_ID>  (14) 
217912

>  <original SMILES>  (14) 
O=C1N[C@]2(CC[C@H](CCNc3ccncc3Cn3cccc3)C2)Nc2ccccc21

>  <tags>  (14) 
['Fragmenstein placed']

>  <inchikey>  (14) 
YBXQXXZXUPHLJW-KOSHJBKYSA-N

>  <SLURM_JOB_NAME>  (14) 
BulkDock.place:Flavi_NS5_RdRp:primer_grip_n_pocket_fstein_bulkdock_input_split1000_batch000

>  <fragmenstein_outcome>  (14) 
acceptable

>  <distance_score>  (14) 
0.572119

>  <HIPPO Compound ID>  (14) 
67408

>  <fragmenstein_error>  (14) 
None

$$$$
77562
     RDKit          3D

 20 22  0  0  0  0  0  0  0  0999 V2000
  -13.7962  -44.1987  -20.6883 N   0  0  0  0  0  0  0  0  0  0  0  0
  -13.4133  -43.1330  -20.9600 C   0  0  0  0  0  0  0  0  0  0  0  0
  -13.0186  -41.7737  -21.1914 C   0  0  0  0  0  0  0  0  0  0  0  0
  -12.0474  -41.2330  -20.3639 N   0  0  0  0  0  0  0  0  0  0  0  0
  -11.8923  -39.9960  -20.7549 C   0  0  0  0  0  0  0  0  0  0  0  0
  -12.7165  -39.7088  -21.7972 N   0  0  0  0  0  0  0  0  0  0  0  0
  -13.4374  -40.8386  -22.1347 C   0  0  0  0  0  0  0  0  0  0  0  0
  -14.2516  -40.7372  -23.2284 N   0  0  0  0  0  0  0  0  0  0  0  0
  -15.1013  -41.6387  -23.7981 C   0  0  0  0  0  0  0  0  0  0  0  0
  -15.6771  -42.8019  -23.3261 C   0  0  0  0  0  0  0  0  0  0  0  0
  -16.4818  -43.3629  -24.3428 C   0  0  0  0  0  0  0  0  0  0  0  0
  -16.4100  -42.5206  -25.4203 C   0  0  0  0  0  0  0  0  0  0  0  0
  -15.6058  -41.4534  -25.0820 N   0  0  0  0  0  0  0  0  0  0  0  0
  -15.3657  -40.3433  -26.0042 C   0  0  0  0  0  0  0  0  0  0  0  0
  -16.4534  -39.3064  -25.9112 C   0  0  0  0  0  0  0  0  0  0  0  0
  -16.6506  -38.5261  -24.7665 C   0  0  0  0  0  0  0  0  0  0  0  0
  -17.6669  -37.5790  -24.7394 C   0  0  0  0  0  0  0  0  0  0  0  0
  -18.4603  -37.4469  -25.8632 C   0  0  0  0  0  0  0  0  0  0  0  0
  -18.3232  -38.1833  -26.9834 N   0  0  0  0  0  0  0  0  0  0  0  0
  -17.3156  -39.0900  -26.9838 C   0  0  0  0  0  0  0  0  0  0  0  0
  1  2  3  0
  2  3  1  0
  3  4  1  0
  4  5  2  0
  5  6  1  0
  6  7  1  0
  7  8  1  0
  8  9  1  0
  9 10  2  0
 10 11  1  0
 11 12  2  0
 12 13  1  0
 13 14  1  0
 14 15  1  0
 15 16  2  0
 16 17  1  0
 17 18  2  0
 18 19  1  0
 19 20  2  0
  7  3  2  0
 13  9  1  0
 20 15  1  0
M  END
>  <HIPPO Pose ID>  (15) 
77562

>  <energy_score>  (15) 
-25.940003

>  <csv_name>  (15) 
primer_grip_n_pocket_fstein_bulkdock_input_split1000_batch000.csv

>  <fragmenstein_mode>  (15) 
expansion

>  <exports>  (15) 
['/opt/xchem-fragalysis-2/maxwin/BulkDock/OUTPUTS/primer_grip_n_pocket_fstein_bulkdock_input_split1000_batch000_217912.sdf']

>  <name>  (15) 
FRJYLRUVCPPIIC-UHFFFAOYSA-N

>  <ref_pdb>  (15) 
d0191a

>  <scratch_subdir>  (15) 
/opt/xchem-fragalysis-2/maxwin/BulkDock/SCRATCH/217912/C67410-P19

>  <ref_mols>  (15) 
d0191a,z0875c

>  <original ID>  (15) 
FRJYLRUVCPPIIC-UHFFFAOYSA-N

>  <fragmenstein_runtime>  (15) 
2.739915

>  <alias>  (15) 
None

>  <SLURM_JOB_ID>  (15) 
217912

>  <original SMILES>  (15) 
N#Cc1nc[nH]c1Nc1cccn1Cc1cccnc1

>  <tags>  (15) 
['Fragmenstein placed']

>  <inchikey>  (15) 
FRJYLRUVCPPIIC-UHFFFAOYSA-N

>  <SLURM_JOB_NAME>  (15) 
BulkDock.place:Flavi_NS5_RdRp:primer_grip_n_pocket_fstein_bulkdock_input_split1000_batch000

>  <fragmenstein_outcome>  (15) 
acceptable

>  <distance_score>  (15) 
0.539675

>  <HIPPO Compound ID>  (15) 
67410

>  <fragmenstein_error>  (15) 
None

$$$$
77572
     RDKit          3D

 44 48  0  0  0  0  0  0  0  0999 V2000
  -14.6267  -38.4691  -17.0813 C   0  0  0  0  0  0  0  0  0  0  0  0
  -14.0257  -38.7941  -15.8320 O   0  0  0  0  0  0  0  0  0  0  0  0
  -14.5640  -39.8414  -15.1372 C   0  0  0  0  0  0  0  0  0  0  0  0
  -13.9006  -40.1817  -13.9544 C   0  0  0  0  0  0  0  0  0  0  0  0
  -14.3429  -41.2476  -13.1628 C   0  0  0  0  0  0  0  0  0  0  0  0
  -15.4511  -41.9959  -13.5553 C   0  0  0  0  0  0  0  0  0  0  0  0
  -16.1107  -41.6554  -14.7353 C   0  0  0  0  0  0  0  0  0  0  0  0
  -17.4671  -42.6348  -15.3275 S   0  0  0  0  0  0  0  0  0  0  0  0
  -17.4494  -43.9102  -14.6463 O   0  0  0  0  0  0  0  0  0  0  0  0
  -18.6347  -41.7856  -15.3560 O   0  0  0  0  0  0  0  0  0  0  0  0
  -17.0036  -42.8808  -16.8812 N   0  0  0  0  0  0  0  0  0  0  0  0
  -15.9830  -43.8818  -17.4805 C   0  0  0  0  0  0  0  0  0  0  0  0
  -15.3737  -44.7355  -16.9707 O   0  0  0  0  0  0  0  0  0  0  0  0
  -15.8047  -43.6388  -18.9124 C   0  0  0  0  0  0  0  0  0  0  0  0
  -16.6622  -44.3404  -19.7515 C   0  0  0  0  0  0  0  0  0  0  0  0
  -16.4001  -44.3617  -21.1157 C   0  0  0  0  0  0  0  0  0  0  0  0
  -17.2463  -45.1871  -21.9547 C   0  0  0  0  0  0  0  0  0  0  0  0
  -17.3679  -46.5589  -21.9538 C   0  0  0  0  0  0  0  0  0  0  0  0
  -18.2067  -46.9995  -23.0089 C   0  0  0  0  0  0  0  0  0  0  0  0
  -18.7352  -45.9473  -23.7288 C   0  0  0  0  0  0  0  0  0  0  0  0
  -19.6050  -46.0960  -24.8416 C   0  0  0  0  0  0  0  0  0  0  0  0
  -20.3733  -46.3621  -25.7241 C   0  0  0  0  0  0  0  0  0  0  0  0
  -21.3372  -46.8567  -26.6958 C   0  0  0  0  0  0  0  0  0  0  0  0
  -21.7589  -45.8024  -27.5312 O   0  0  0  0  0  0  0  0  0  0  0  0
  -18.3071  -44.4470  -23.0669 S   0  0  0  0  0  0  0  0  0  0  0  0
  -15.2776  -43.6783  -21.6162 C   0  0  0  0  0  0  0  0  0  0  0  0
  -14.8852  -43.8727  -22.9177 O   0  0  0  0  0  0  0  0  0  0  0  0
  -15.2308  -42.9920  -23.8776 C   0  0  0  0  0  0  0  0  0  0  0  0
  -15.8394  -43.3573  -25.0894 C   0  0  0  0  0  0  0  0  0  0  0  0
  -15.9410  -42.2277  -25.8549 C   0  0  0  0  0  0  0  0  0  0  0  0
  -15.3755  -41.1954  -25.1602 N   0  0  0  0  0  0  0  0  0  0  0  0
  -15.1302  -39.8808  -25.7350 C   0  0  0  0  0  0  0  0  0  0  0  0
  -16.3798  -39.0514  -25.7534 C   0  0  0  0  0  0  0  0  0  0  0  0
  -16.7630  -38.3112  -24.6332 C   0  0  0  0  0  0  0  0  0  0  0  0
  -17.9340  -37.5686  -24.6709 C   0  0  0  0  0  0  0  0  0  0  0  0
  -18.6874  -37.5934  -25.8317 C   0  0  0  0  0  0  0  0  0  0  0  0
  -18.3607  -38.2902  -26.9380 N   0  0  0  0  0  0  0  0  0  0  0  0
  -17.2132  -39.0116  -26.8708 C   0  0  0  0  0  0  0  0  0  0  0  0
  -14.9651  -41.6409  -23.9236 C   0  0  0  0  0  0  0  0  0  0  0  0
  -14.4293  -42.9658  -20.7652 C   0  0  0  0  0  0  0  0  0  0  0  0
  -14.6897  -42.9349  -19.3959 C   0  0  0  0  0  0  0  0  0  0  0  0
  -13.9282  -42.2735  -18.4720 O   0  0  0  0  0  0  0  0  0  0  0  0
  -12.7045  -41.7036  -18.9340 C   0  0  0  0  0  0  0  0  0  0  0  0
  -15.6853  -40.5710  -15.5173 C   0  0  0  0  0  0  0  0  0  0  0  0
  1  2  1  0
  2  3  1  0
  3  4  2  0
  4  5  1  0
  5  6  2  0
  6  7  1  0
  7  8  1  0
  8  9  2  0
  8 10  2  0
  8 11  1  0
 11 12  1  0
 12 13  2  0
 12 14  1  0
 14 15  2  0
 15 16  1  0
 16 17  1  0
 17 18  2  0
 18 19  1  0
 19 20  2  0
 20 21  1  0
 21 22  3  0
 22 23  1  0
 23 24  1  0
 20 25  1  0
 16 26  2  0
 26 27  1  0
 27 28  1  0
 28 29  1  0
 29 30  2  0
 30 31  1  0
 31 32  1  0
 32 33  1  0
 33 34  2  0
 34 35  1  0
 35 36  2  0
 36 37  1  0
 37 38  2  0
 31 39  1  0
 26 40  1  0
 40 41  2  0
 41 42  1  0
 42 43  1  0
  7 44  2  0
 44  3  1  0
 41 14  1  0
 25 17  1  0
 39 28  2  0
 38 33  1  0
M  END
>  <HIPPO Pose ID>  (16) 
77572

>  <energy_score>  (16) 
-120.500906

>  <csv_name>  (16) 
primer_grip_n_pocket_fstein_bulkdock_input_split1000_batch000.csv

>  <fragmenstein_mode>  (16) 
expansion

>  <exports>  (16) 
['/opt/xchem-fragalysis-2/maxwin/BulkDock/OUTPUTS/primer_grip_n_pocket_fstein_bulkdock_input_split1000_batch000_217912.sdf']

>  <name>  (16) 
XERNXRBNPBXZCC-UHFFFAOYSA-N

>  <ref_pdb>  (16) 
d0191a

>  <scratch_subdir>  (16) 
/opt/xchem-fragalysis-2/maxwin/BulkDock/SCRATCH/217912/C67411-P19

>  <ref_mols>  (16) 
d0191a,5i3p-a

>  <original ID>  (16) 
XERNXRBNPBXZCC-UHFFFAOYSA-N

>  <fragmenstein_runtime>  (16) 
17.186981

>  <alias>  (16) 
None

>  <SLURM_JOB_ID>  (16) 
217912

>  <original SMILES>  (16) 
COc1cccc(S(=O)(=O)NC(=O)c2cc(-c3ccc(C#CCO)s3)c(Oc3ccn(Cc4cccnc4)c3)cc2OC)c1

>  <tags>  (16) 
['Fragmenstein placed']

>  <inchikey>  (16) 
XERNXRBNPBXZCC-UHFFFAOYSA-N

>  <SLURM_JOB_NAME>  (16) 
BulkDock.place:Flavi_NS5_RdRp:primer_grip_n_pocket_fstein_bulkdock_input_split1000_batch000

>  <fragmenstein_outcome>  (16) 
acceptable

>  <distance_score>  (16) 
0.48594

>  <HIPPO Compound ID>  (16) 
67411

>  <fragmenstein_error>  (16) 
None

$$$$
77601
     RDKit          3D

 28 31  0  0  0  0  0  0  0  0999 V2000
  -16.5039  -44.6148  -16.0886 O   0  0  0  0  0  0  0  0  0  0  0  0
  -16.6814  -43.5754  -16.7099 C   0  0  0  0  0  0  0  0  0  0  0  0
  -17.8971  -42.9950  -16.8215 O   0  0  0  0  0  0  0  0  0  0  0  0
  -15.5841  -42.8494  -17.4449 C   0  0  0  0  0  0  0  0  0  0  0  0
  -15.4216  -43.2171  -18.8985 C   0  0  0  0  0  0  0  0  0  0  0  0
  -14.3053  -42.7072  -19.5831 C   0  0  0  0  0  0  0  0  0  0  0  0
  -14.1291  -42.9452  -20.9447 C   0  0  0  0  0  0  0  0  0  0  0  0
  -15.0823  -43.6764  -21.6445 C   0  0  0  0  0  0  0  0  0  0  0  0
  -14.8829  -43.9520  -22.9724 O   0  0  0  0  0  0  0  0  0  0  0  0
  -15.2070  -43.0491  -23.9218 C   0  0  0  0  0  0  0  0  0  0  0  0
  -15.8394  -43.3905  -25.1295 C   0  0  0  0  0  0  0  0  0  0  0  0
  -15.9178  -42.2550  -25.8900 C   0  0  0  0  0  0  0  0  0  0  0  0
  -15.3520  -41.2319  -25.1812 N   0  0  0  0  0  0  0  0  0  0  0  0
  -15.1066  -39.9069  -25.7336 C   0  0  0  0  0  0  0  0  0  0  0  0
  -16.3560  -39.0755  -25.7456 C   0  0  0  0  0  0  0  0  0  0  0  0
  -16.7302  -38.3309  -24.6251 C   0  0  0  0  0  0  0  0  0  0  0  0
  -17.8950  -37.5776  -24.6599 C   0  0  0  0  0  0  0  0  0  0  0  0
  -18.6531  -37.5985  -25.8179 C   0  0  0  0  0  0  0  0  0  0  0  0
  -18.3382  -38.3028  -26.9232 N   0  0  0  0  0  0  0  0  0  0  0  0
  -17.1938  -39.0302  -26.8597 C   0  0  0  0  0  0  0  0  0  0  0  0
  -14.9465  -41.6958  -23.9500 C   0  0  0  0  0  0  0  0  0  0  0  0
  -16.1694  -44.2526  -20.9700 C   0  0  0  0  0  0  0  0  0  0  0  0
  -17.0827  -45.1392  -21.6693 C   0  0  0  0  0  0  0  0  0  0  0  0
  -17.9215  -44.8132  -22.7781 C   0  0  0  0  0  0  0  0  0  0  0  0
  -18.4919  -45.9308  -23.3374 C   0  0  0  0  0  0  0  0  0  0  0  0
  -18.0663  -47.3549  -22.4868 S   0  0  0  0  0  0  0  0  0  0  0  0
  -17.1284  -46.4842  -21.3663 C   0  0  0  0  0  0  0  0  0  0  0  0
  -16.3398  -44.0134  -19.6006 C   0  0  0  0  0  0  0  0  0  0  0  0
  1  2  2  0
  2  3  1  0
  2  4  1  0
  4  5  1  0
  5  6  2  0
  6  7  1  0
  7  8  2  0
  8  9  1  0
  9 10  1  0
 10 11  1  0
 11 12  2  0
 12 13  1  0
 13 14  1  0
 14 15  1  0
 15 16  2  0
 16 17  1  0
 17 18  2  0
 18 19  1  0
 19 20  2  0
 13 21  1  0
  8 22  1  0
 22 23  1  0
 23 24  1  0
 24 25  2  0
 25 26  1  0
 26 27  1  0
 22 28  2  0
 28  5  1  0
 21 10  2  0
 27 23  2  0
 20 15  1  0
M  END
>  <HIPPO Pose ID>  (17) 
77601

>  <energy_score>  (17) 
-98.351324

>  <csv_name>  (17) 
primer_grip_n_pocket_fstein_bulkdock_input_split1000_batch000.csv

>  <fragmenstein_mode>  (17) 
expansion

>  <exports>  (17) 
['/opt/xchem-fragalysis-2/maxwin/BulkDock/OUTPUTS/primer_grip_n_pocket_fstein_bulkdock_input_split1000_batch000_217912.sdf']

>  <name>  (17) 
WNVLGSMOSHDQEI-UHFFFAOYSA-N

>  <ref_pdb>  (17) 
d0191a

>  <scratch_subdir>  (17) 
/opt/xchem-fragalysis-2/maxwin/BulkDock/SCRATCH/217912/C67413-P19

>  <ref_mols>  (17) 
d0191a,5f41-a

>  <original ID>  (17) 
WNVLGSMOSHDQEI-UHFFFAOYSA-N

>  <fragmenstein_runtime>  (17) 
4.219404

>  <alias>  (17) 
None

>  <SLURM_JOB_ID>  (17) 
217912

>  <original SMILES>  (17) 
O=C(O)Cc1ccc(Oc2ccn(Cc3cccnc3)c2)c(-c2ccsc2)c1

>  <tags>  (17) 
['Fragmenstein placed']

>  <inchikey>  (17) 
WNVLGSMOSHDQEI-UHFFFAOYSA-N

>  <SLURM_JOB_NAME>  (17) 
BulkDock.place:Flavi_NS5_RdRp:primer_grip_n_pocket_fstein_bulkdock_input_split1000_batch000

>  <fragmenstein_outcome>  (17) 
acceptable

>  <distance_score>  (17) 
0.696191

>  <HIPPO Compound ID>  (17) 
67413

>  <fragmenstein_error>  (17) 
None

$$$$
77613
     RDKit          3D

 28 31  0  0  0  0  0  0  0  0999 V2000
  -18.0517  -42.6770  -15.9581 O   0  0  0  0  0  0  0  0  0  0  0  0
  -17.3932  -42.5329  -16.9810 C   0  0  0  0  0  0  0  0  0  0  0  0
  -17.7301  -41.6215  -17.9169 O   0  0  0  0  0  0  0  0  0  0  0  0
  -16.1246  -43.3166  -17.2352 C   0  0  0  0  0  0  0  0  0  0  0  0
  -15.7679  -43.5333  -18.6834 C   0  0  0  0  0  0  0  0  0  0  0  0
  -14.7461  -42.7938  -19.2856 C   0  0  0  0  0  0  0  0  0  0  0  0
  -14.5092  -42.9211  -20.6513 C   0  0  0  0  0  0  0  0  0  0  0  0
  -15.2860  -43.7893  -21.4288 C   0  0  0  0  0  0  0  0  0  0  0  0
  -15.0013  -43.8171  -22.7761 O   0  0  0  0  0  0  0  0  0  0  0  0
  -15.5553  -42.8595  -23.5583 C   0  0  0  0  0  0  0  0  0  0  0  0
  -16.8537  -42.3142  -23.4890 C   0  0  0  0  0  0  0  0  0  0  0  0
  -17.0233  -41.5327  -24.6017 C   0  0  0  0  0  0  0  0  0  0  0  0
  -15.7959  -41.3835  -25.2007 N   0  0  0  0  0  0  0  0  0  0  0  0
  -15.4757  -40.3954  -26.2354 C   0  0  0  0  0  0  0  0  0  0  0  0
  -16.3990  -39.2062  -26.1393 C   0  0  0  0  0  0  0  0  0  0  0  0
  -16.3912  -38.3667  -25.0182 C   0  0  0  0  0  0  0  0  0  0  0  0
  -17.3703  -37.3936  -24.8813 C   0  0  0  0  0  0  0  0  0  0  0  0
  -18.3086  -37.2758  -25.8888 C   0  0  0  0  0  0  0  0  0  0  0  0
  -18.3619  -38.0597  -26.9865 N   0  0  0  0  0  0  0  0  0  0  0  0
  -17.3930  -39.0013  -27.0902 C   0  0  0  0  0  0  0  0  0  0  0  0
  -14.9126  -42.2595  -24.6159 C   0  0  0  0  0  0  0  0  0  0  0  0
  -16.2621  -44.6049  -20.8326 C   0  0  0  0  0  0  0  0  0  0  0  0
  -17.0157  -45.6440  -21.5410 C   0  0  0  0  0  0  0  0  0  0  0  0
  -17.1284  -46.9812  -21.2074 C   0  0  0  0  0  0  0  0  0  0  0  0
  -17.8786  -47.7169  -22.1644 C   0  0  0  0  0  0  0  0  0  0  0  0
  -18.3164  -46.9212  -23.1928 C   0  0  0  0  0  0  0  0  0  0  0  0
  -17.9861  -45.2853  -22.9011 S   0  0  0  0  0  0  0  0  0  0  0  0
  -16.4985  -44.4507  -19.4552 C   0  0  0  0  0  0  0  0  0  0  0  0
  1  2  2  0
  2  3  1  0
  2  4  1  0
  4  5  1  0
  5  6  2  0
  6  7  1  0
  7  8  2  0
  8  9  1  0
  9 10  1  0
 10 11  1  0
 11 12  2  0
 12 13  1  0
 13 14  1  0
 14 15  1  0
 15 16  2  0
 16 17  1  0
 17 18  2  0
 18 19  1  0
 19 20  2  0
 13 21  1  0
  8 22  1  0
 22 23  1  0
 23 24  2  0
 24 25  1  0
 25 26  2  0
 26 27  1  0
 22 28  2  0
 28  5  1  0
 21 10  2  0
 27 23  1  0
 20 15  1  0
M  END
>  <HIPPO Pose ID>  (18) 
77613

>  <energy_score>  (18) 
-68.695371

>  <csv_name>  (18) 
primer_grip_n_pocket_fstein_bulkdock_input_split1000_batch000.csv

>  <fragmenstein_mode>  (18) 
expansion

>  <exports>  (18) 
['/opt/xchem-fragalysis-2/maxwin/BulkDock/OUTPUTS/primer_grip_n_pocket_fstein_bulkdock_input_split1000_batch000_217912.sdf']

>  <name>  (18) 
IHJVUVXTPQEXHP-UHFFFAOYSA-N

>  <ref_pdb>  (18) 
d0191a

>  <scratch_subdir>  (18) 
/opt/xchem-fragalysis-2/maxwin/BulkDock/SCRATCH/217912/C67414-P19

>  <ref_mols>  (18) 
d0191a,6h80-a,5f3z-a,6h9r-a

>  <original ID>  (18) 
IHJVUVXTPQEXHP-UHFFFAOYSA-N

>  <fragmenstein_runtime>  (18) 
4.164164

>  <alias>  (18) 
None

>  <SLURM_JOB_ID>  (18) 
217912

>  <original SMILES>  (18) 
O=C(O)Cc1ccc(Oc2ccn(Cc3cccnc3)c2)c(-c2cccs2)c1

>  <tags>  (18) 
['Fragmenstein placed']

>  <inchikey>  (18) 
IHJVUVXTPQEXHP-UHFFFAOYSA-N

>  <SLURM_JOB_NAME>  (18) 
BulkDock.place:Flavi_NS5_RdRp:primer_grip_n_pocket_fstein_bulkdock_input_split1000_batch000

>  <fragmenstein_outcome>  (18) 
acceptable

>  <distance_score>  (18) 
0.888898

>  <HIPPO Compound ID>  (18) 
67414

>  <fragmenstein_error>  (18) 
None

$$$$
77667
     RDKit          3D

 45 49  0  0  0  0  0  0  0  0999 V2000
  -13.3547  -38.9678  -16.5168 C   0  0  0  0  0  0  0  0  0  0  0  0
  -13.0692  -39.2113  -15.1449 O   0  0  0  0  0  0  0  0  0  0  0  0
  -13.8321  -40.1590  -14.5189 C   0  0  0  0  0  0  0  0  0  0  0  0
  -13.3456  -40.5836  -13.2789 C   0  0  0  0  0  0  0  0  0  0  0  0
  -14.0070  -41.5774  -12.5530 C   0  0  0  0  0  0  0  0  0  0  0  0
  -15.1598  -42.1661  -13.0700 C   0  0  0  0  0  0  0  0  0  0  0  0
  -15.6537  -41.7348  -14.3042 C   0  0  0  0  0  0  0  0  0  0  0  0
  -16.9995  -42.6171  -15.0639 S   0  0  0  0  0  0  0  0  0  0  0  0
  -18.1482  -41.7443  -15.0947 O   0  0  0  0  0  0  0  0  0  0  0  0
  -17.0641  -43.9478  -14.4978 O   0  0  0  0  0  0  0  0  0  0  0  0
  -16.4867  -42.8013  -16.6102 N   0  0  0  0  0  0  0  0  0  0  0  0
  -15.0850  -43.1591  -17.1703 C   0  0  0  0  0  0  0  0  0  0  0  0
  -14.0664  -43.3012  -16.6211 O   0  0  0  0  0  0  0  0  0  0  0  0
  -15.0954  -43.4220  -18.6268 C   0  0  0  0  0  0  0  0  0  0  0  0
  -16.1314  -44.1452  -19.2499 C   0  0  0  0  0  0  0  0  0  0  0  0
  -16.0024  -44.4984  -20.5961 C   0  0  0  0  0  0  0  0  0  0  0  0
  -17.0236  -45.2544  -21.3179 C   0  0  0  0  0  0  0  0  0  0  0  0
  -17.2159  -46.6181  -21.3617 C   0  0  0  0  0  0  0  0  0  0  0  0
  -18.0182  -46.9917  -22.4798 C   0  0  0  0  0  0  0  0  0  0  0  0
  -18.4586  -45.9020  -23.2068 C   0  0  0  0  0  0  0  0  0  0  0  0
  -19.2516  -45.9915  -24.3963 C   0  0  0  0  0  0  0  0  0  0  0  0
  -19.9758  -46.2138  -25.3317 C   0  0  0  0  0  0  0  0  0  0  0  0
  -20.8751  -46.6790  -26.3935 C   0  0  0  0  0  0  0  0  0  0  0  0
  -21.3685  -45.5865  -27.1340 O   0  0  0  0  0  0  0  0  0  0  0  0
  -18.0369  -44.4408  -22.4370 S   0  0  0  0  0  0  0  0  0  0  0  0
  -14.8148  -44.1822  -21.2767 C   0  0  0  0  0  0  0  0  0  0  0  0
  -14.7091  -44.6354  -22.5669 O   0  0  0  0  0  0  0  0  0  0  0  0
  -13.9995  -43.7771  -23.4485 C   0  0  0  0  0  0  0  0  0  0  0  0
  -14.8880  -42.9182  -24.2692 C   0  0  0  0  0  0  0  0  0  0  0  0
  -16.0359  -43.3113  -24.9958 C   0  0  0  0  0  0  0  0  0  0  0  0
  -16.4798  -42.2200  -25.6970 C   0  0  0  0  0  0  0  0  0  0  0  0
  -15.5796  -41.2120  -25.5033 N   0  0  0  0  0  0  0  0  0  0  0  0
  -15.4484  -40.0220  -26.3250 C   0  0  0  0  0  0  0  0  0  0  0  0
  -16.6079  -39.1022  -26.1349 C   0  0  0  0  0  0  0  0  0  0  0  0
  -16.7898  -38.3617  -24.9653 C   0  0  0  0  0  0  0  0  0  0  0  0
  -17.9188  -37.5673  -24.8346 C   0  0  0  0  0  0  0  0  0  0  0  0
  -18.8193  -37.5478  -25.8857 C   0  0  0  0  0  0  0  0  0  0  0  0
  -18.6731  -38.2299  -27.0371 N   0  0  0  0  0  0  0  0  0  0  0  0
  -17.5685  -38.9985  -27.1313 C   0  0  0  0  0  0  0  0  0  0  0  0
  -14.7049  -41.5723  -24.5194 C   0  0  0  0  0  0  0  0  0  0  0  0
  -13.7769  -43.5169  -20.6260 C   0  0  0  0  0  0  0  0  0  0  0  0
  -13.9391  -43.0551  -19.3351 C   0  0  0  0  0  0  0  0  0  0  0  0
  -12.9857  -42.3075  -18.6974 O   0  0  0  0  0  0  0  0  0  0  0  0
  -12.1797  -41.4657  -19.5123 C   0  0  0  0  0  0  0  0  0  0  0  0
  -15.0110  -40.7121  -15.0171 C   0  0  0  0  0  0  0  0  0  0  0  0
  1  2  1  0
  2  3  1  0
  3  4  2  0
  4  5  1  0
  5  6  2  0
  6  7  1  0
  7  8  1  0
  8  9  2  0
  8 10  2  0
  8 11  1  0
 11 12  1  0
 12 13  2  0
 12 14  1  0
 14 15  2  0
 15 16  1  0
 16 17  1  0
 17 18  2  0
 18 19  1  0
 19 20  2  0
 20 21  1  0
 21 22  3  0
 22 23  1  0
 23 24  1  0
 20 25  1  0
 16 26  2  0
 26 27  1  0
 27 28  1  0
 28 29  1  0
 29 30  1  0
 30 31  2  0
 31 32  1  0
 32 33  1  0
 33 34  1  0
 34 35  2  0
 35 36  1  0
 36 37  2  0
 37 38  1  0
 38 39  2  0
 32 40  1  0
 26 41  1  0
 41 42  2  0
 42 43  1  0
 43 44  1  0
  7 45  2  0
 45  3  1  0
 42 14  1  0
 25 17  1  0
 40 29  2  0
 39 34  1  0
M  END
>  <HIPPO Pose ID>  (19) 
77667

>  <energy_score>  (19) 
-49.628556

>  <csv_name>  (19) 
primer_grip_n_pocket_fstein_bulkdock_input_split1000_batch000.csv

>  <fragmenstein_mode>  (19) 
expansion

>  <exports>  (19) 
['/opt/xchem-fragalysis-2/maxwin/BulkDock/OUTPUTS/primer_grip_n_pocket_fstein_bulkdock_input_split1000_batch000_217912.sdf']

>  <name>  (19) 
VOSRJFVUSZNTLB-UHFFFAOYSA-N

>  <ref_pdb>  (19) 
d0191a

>  <scratch_subdir>  (19) 
/opt/xchem-fragalysis-2/maxwin/BulkDock/SCRATCH/217912/C67419-P19

>  <ref_mols>  (19) 
d0191a,5k5m-a

>  <original ID>  (19) 
VOSRJFVUSZNTLB-UHFFFAOYSA-N

>  <fragmenstein_runtime>  (19) 
13.655248

>  <alias>  (19) 
None

>  <SLURM_JOB_ID>  (19) 
217912

>  <original SMILES>  (19) 
COc1cccc(S(=O)(=O)NC(=O)c2cc(-c3ccc(C#CCO)s3)c(OCc3ccn(Cc4cccnc4)c3)cc2OC)c1

>  <tags>  (19) 
['Fragmenstein placed']

>  <inchikey>  (19) 
VOSRJFVUSZNTLB-UHFFFAOYSA-N

>  <SLURM_JOB_NAME>  (19) 
BulkDock.place:Flavi_NS5_RdRp:primer_grip_n_pocket_fstein_bulkdock_input_split1000_batch000

>  <fragmenstein_outcome>  (19) 
acceptable

>  <distance_score>  (19) 
0.549879

>  <HIPPO Compound ID>  (19) 
67419

>  <fragmenstein_error>  (19) 
None

$$$$
77685
     RDKit          3D

 36 39  0  0  0  0  0  0  0  0999 V2000
  -13.0189  -41.9773  -18.9688 C   0  0  0  0  0  0  0  0  0  0  0  0
  -14.1529  -42.6974  -19.6468 C   0  0  0  0  0  0  0  0  0  0  0  0
  -14.0570  -42.9269  -21.0201 C   0  0  0  0  0  0  0  0  0  0  0  0
  -15.0624  -43.6177  -21.6909 C   0  0  0  0  0  0  0  0  0  0  0  0
  -14.8751  -43.9182  -23.0156 O   0  0  0  0  0  0  0  0  0  0  0  0
  -15.1920  -43.0164  -23.9655 C   0  0  0  0  0  0  0  0  0  0  0  0
  -15.8584  -43.3511  -25.1552 C   0  0  0  0  0  0  0  0  0  0  0  0
  -15.9488  -42.2113  -25.9058 C   0  0  0  0  0  0  0  0  0  0  0  0
  -15.3510  -41.1972  -25.2123 N   0  0  0  0  0  0  0  0  0  0  0  0
  -15.1152  -39.8717  -25.7638 C   0  0  0  0  0  0  0  0  0  0  0  0
  -16.3702  -39.0496  -25.7689 C   0  0  0  0  0  0  0  0  0  0  0  0
  -16.7549  -38.3241  -24.6395 C   0  0  0  0  0  0  0  0  0  0  0  0
  -17.9307  -37.5883  -24.6657 C   0  0  0  0  0  0  0  0  0  0  0  0
  -18.6881  -37.6063  -25.8243 C   0  0  0  0  0  0  0  0  0  0  0  0
  -18.3611  -38.2898  -26.9392 N   0  0  0  0  0  0  0  0  0  0  0  0
  -17.2078  -39.0029  -26.8829 C   0  0  0  0  0  0  0  0  0  0  0  0
  -14.9110  -41.6678  -23.9979 C   0  0  0  0  0  0  0  0  0  0  0  0
  -16.1716  -44.1449  -21.0078 C   0  0  0  0  0  0  0  0  0  0  0  0
  -17.1362  -44.9878  -21.7147 C   0  0  0  0  0  0  0  0  0  0  0  0
  -17.2837  -46.3577  -21.6583 C   0  0  0  0  0  0  0  0  0  0  0  0
  -18.1171  -46.8359  -22.7103 C   0  0  0  0  0  0  0  0  0  0  0  0
  -18.6373  -45.8134  -23.4814 C   0  0  0  0  0  0  0  0  0  0  0  0
  -19.4763  -46.0100  -24.6241 C   0  0  0  0  0  0  0  0  0  0  0  0
  -20.1802  -46.3374  -25.5442 C   0  0  0  0  0  0  0  0  0  0  0  0
  -20.9738  -46.9580  -26.6085 C   0  0  0  0  0  0  0  0  0  0  0  0
  -22.3644  -46.8193  -26.3880 O   0  0  0  0  0  0  0  0  0  0  0  0
  -18.2220  -44.2909  -22.8443 S   0  0  0  0  0  0  0  0  0  0  0  0
  -16.2631  -43.9471  -19.6262 C   0  0  0  0  0  0  0  0  0  0  0  0
  -15.2619  -43.2206  -18.9488 C   0  0  0  0  0  0  0  0  0  0  0  0
  -15.2940  -43.1365  -17.4622 C   0  0  0  0  0  0  0  0  0  0  0  0
  -14.3015  -43.3422  -16.8841 O   0  0  0  0  0  0  0  0  0  0  0  0
  -16.7317  -42.8746  -16.9320 N   0  0  0  0  0  0  0  0  0  0  0  0
  -17.3235  -42.9117  -15.4106 S   0  0  0  0  0  0  0  0  0  0  0  0
  -16.2650  -41.7702  -14.5456 C   0  0  0  0  0  0  0  0  0  0  0  0
  -17.0968  -44.2459  -14.9030 O   0  0  0  0  0  0  0  0  0  0  0  0
  -18.6496  -42.3411  -15.4730 O   0  0  0  0  0  0  0  0  0  0  0  0
  1  2  1  0
  2  3  2  0
  3  4  1  0
  4  5  1  0
  5  6  1  0
  6  7  1  0
  7  8  2  0
  8  9  1  0
  9 10  1  0
 10 11  1  0
 11 12  2  0
 12 13  1  0
 13 14  2  0
 14 15  1  0
 15 16  2  0
  9 17  1  0
  4 18  2  0
 18 19  1  0
 19 20  2  0
 20 21  1  0
 21 22  2  0
 22 23  1  0
 23 24  3  0
 24 25  1  0
 25 26  1  0
 22 27  1  0
 18 28  1  0
 28 29  2  0
 29 30  1  0
 30 31  2  0
 30 32  1  0
 32 33  1  0
 33 34  1  0
 33 35  2  0
 33 36  2  0
 29  2  1  0
 17  6  2  0
 27 19  1  0
 16 11  1  0
M  END
>  <HIPPO Pose ID>  (20) 
77685

>  <energy_score>  (20) 
-62.922716

>  <csv_name>  (20) 
primer_grip_n_pocket_fstein_bulkdock_input_split1000_batch000.csv

>  <fragmenstein_mode>  (20) 
expansion

>  <exports>  (20) 
['/opt/xchem-fragalysis-2/maxwin/BulkDock/OUTPUTS/primer_grip_n_pocket_fstein_bulkdock_input_split1000_batch000_217912.sdf']

>  <name>  (20) 
WBFPJIVBPQVHFQ-UHFFFAOYSA-N

>  <ref_pdb>  (20) 
d0191a

>  <scratch_subdir>  (20) 
/opt/xchem-fragalysis-2/maxwin/BulkDock/SCRATCH/217912/C67420-P19

>  <ref_mols>  (20) 
d0191a,5hmz-a

>  <original ID>  (20) 
WBFPJIVBPQVHFQ-UHFFFAOYSA-N

>  <fragmenstein_runtime>  (20) 
9.925789

>  <alias>  (20) 
None

>  <SLURM_JOB_ID>  (20) 
217912

>  <original SMILES>  (20) 
Cc1cc(Oc2ccn(Cc3cccnc3)c2)c(-c2ccc(C#CCO)s2)cc1C(=O)NS(C)(=O)=O

>  <tags>  (20) 
['Fragmenstein placed']

>  <inchikey>  (20) 
WBFPJIVBPQVHFQ-UHFFFAOYSA-N

>  <SLURM_JOB_NAME>  (20) 
BulkDock.place:Flavi_NS5_RdRp:primer_grip_n_pocket_fstein_bulkdock_input_split1000_batch000

>  <fragmenstein_outcome>  (20) 
acceptable

>  <distance_score>  (20) 
0.571953

>  <HIPPO Compound ID>  (20) 
67420

>  <fragmenstein_error>  (20) 
None

$$$$
77720
     RDKit          3D

 29 32  0  0  0  0  0  0  0  0999 V2000
  -16.4264  -45.0323  -16.2394 O   0  0  0  0  0  0  0  0  0  0  0  0
  -17.0092  -44.0274  -16.6194 C   0  0  0  0  0  0  0  0  0  0  0  0
  -18.3331  -43.8859  -16.4165 O   0  0  0  0  0  0  0  0  0  0  0  0
  -16.3911  -42.8641  -17.3498 C   0  0  0  0  0  0  0  0  0  0  0  0
  -15.9309  -43.1975  -18.7479 C   0  0  0  0  0  0  0  0  0  0  0  0
  -14.7466  -42.6451  -19.2532 C   0  0  0  0  0  0  0  0  0  0  0  0
  -14.3767  -42.8538  -20.5823 C   0  0  0  0  0  0  0  0  0  0  0  0
  -15.1960  -43.6034  -21.4264 C   0  0  0  0  0  0  0  0  0  0  0  0
  -14.7524  -43.8281  -22.7098 O   0  0  0  0  0  0  0  0  0  0  0  0
  -15.1451  -43.0086  -23.7126 C   0  0  0  0  0  0  0  0  0  0  0  0
  -15.8006  -43.4329  -24.8829 C   0  0  0  0  0  0  0  0  0  0  0  0
  -15.9622  -42.3407  -25.6959 C   0  0  0  0  0  0  0  0  0  0  0  0
  -15.3632  -41.2737  -25.0825 N   0  0  0  0  0  0  0  0  0  0  0  0
  -15.1319  -39.9915  -25.7366 C   0  0  0  0  0  0  0  0  0  0  0  0
  -16.3650  -39.1360  -25.7401 C   0  0  0  0  0  0  0  0  0  0  0  0
  -16.7195  -38.3830  -24.6183 C   0  0  0  0  0  0  0  0  0  0  0  0
  -17.8624  -37.5963  -24.6526 C   0  0  0  0  0  0  0  0  0  0  0  0
  -18.6190  -37.5934  -25.8116 C   0  0  0  0  0  0  0  0  0  0  0  0
  -18.3244  -38.3059  -26.9174 N   0  0  0  0  0  0  0  0  0  0  0  0
  -17.2012  -39.0660  -26.8541 C   0  0  0  0  0  0  0  0  0  0  0  0
  -14.8955  -41.6586  -23.8438 C   0  0  0  0  0  0  0  0  0  0  0  0
  -16.3625  -44.2205  -20.9315 C   0  0  0  0  0  0  0  0  0  0  0  0
  -17.1766  -45.1397  -21.7303 C   0  0  0  0  0  0  0  0  0  0  0  0
  -17.1531  -46.5151  -21.4542 C   0  0  0  0  0  0  0  0  0  0  0  0
  -17.7977  -47.4118  -22.2956 C   0  0  0  0  0  0  0  0  0  0  0  0
  -18.4478  -46.9406  -23.4311 C   0  0  0  0  0  0  0  0  0  0  0  0
  -18.5835  -45.5729  -23.6557 C   0  0  0  0  0  0  0  0  0  0  0  0
  -17.9601  -44.6760  -22.7949 C   0  0  0  0  0  0  0  0  0  0  0  0
  -16.7242  -43.9853  -19.5953 C   0  0  0  0  0  0  0  0  0  0  0  0
  1  2  2  0
  2  3  1  0
  2  4  1  0
  4  5  1  0
  5  6  2  0
  6  7  1  0
  7  8  2  0
  8  9  1  0
  9 10  1  0
 10 11  1  0
 11 12  2  0
 12 13  1  0
 13 14  1  0
 14 15  1  0
 15 16  2  0
 16 17  1  0
 17 18  2  0
 18 19  1  0
 19 20  2  0
 13 21  1  0
  8 22  1  0
 22 23  1  0
 23 24  2  0
 24 25  1  0
 25 26  2  0
 26 27  1  0
 27 28  2  0
 22 29  2  0
 29  5  1  0
 21 10  2  0
 28 23  1  0
 20 15  1  0
M  END
>  <HIPPO Pose ID>  (21) 
77720

>  <energy_score>  (21) 
-166.217484

>  <csv_name>  (21) 
primer_grip_n_pocket_fstein_bulkdock_input_split1000_batch000.csv

>  <fragmenstein_mode>  (21) 
expansion

>  <exports>  (21) 
['/opt/xchem-fragalysis-2/maxwin/BulkDock/OUTPUTS/primer_grip_n_pocket_fstein_bulkdock_input_split1000_batch000_217912.sdf']

>  <name>  (21) 
XUTJMOYFAZCLAS-UHFFFAOYSA-N

>  <ref_pdb>  (21) 
d0191a

>  <scratch_subdir>  (21) 
/opt/xchem-fragalysis-2/maxwin/BulkDock/SCRATCH/217912/C67422-P19

>  <ref_mols>  (21) 
d0191a,5f3t-a

>  <original ID>  (21) 
XUTJMOYFAZCLAS-UHFFFAOYSA-N

>  <fragmenstein_runtime>  (21) 
8.20499

>  <alias>  (21) 
None

>  <SLURM_JOB_ID>  (21) 
217912

>  <original SMILES>  (21) 
O=C(O)Cc1ccc(Oc2ccn(Cc3cccnc3)c2)c(-c2ccccc2)c1

>  <tags>  (21) 
['Fragmenstein placed']

>  <inchikey>  (21) 
XUTJMOYFAZCLAS-UHFFFAOYSA-N

>  <SLURM_JOB_NAME>  (21) 
BulkDock.place:Flavi_NS5_RdRp:primer_grip_n_pocket_fstein_bulkdock_input_split1000_batch000

>  <fragmenstein_outcome>  (21) 
acceptable

>  <distance_score>  (21) 
0.832358

>  <HIPPO Compound ID>  (21) 
67422

>  <fragmenstein_error>  (21) 
None

$$$$
80946
     RDKit          3D

 34 36  0  0  0  0  0  0  0  0999 V2000
  -16.3449  -41.3367  -27.7511 C   0  0  0  0  0  0  0  0  0  0  0  0
  -17.1435  -41.4902  -26.4642 C   0  0  1  0  0  0  0  0  0  0  0  0
  -16.4868  -42.3460  -25.3971 C   0  0  0  0  0  0  0  0  0  0  0  0
  -15.5974  -41.6091  -24.4094 C   0  0  0  0  0  0  0  0  0  0  0  0
  -15.2774  -40.1838  -24.8411 C   0  0  2  0  0  0  0  0  0  0  0  0
  -14.2271  -39.6107  -23.9806 N   0  0  0  0  0  0  0  0  0  0  0  0
  -14.5583  -38.7627  -22.8646 C   0  0  0  0  0  0  0  0  0  0  0  0
  -15.6184  -39.2169  -22.0030 N   0  0  0  0  0  0  0  0  0  0  0  0
  -15.4017  -40.2328  -21.2550 C   0  0  0  0  0  0  0  0  0  0  0  0
  -16.4079  -40.5106  -20.4115 O   0  0  0  0  0  0  0  0  0  0  0  0
  -14.1839  -41.1388  -21.1692 C   0  0  0  0  0  0  0  0  0  0  0  0
  -14.5233  -42.4723  -20.5477 C   0  0  0  0  0  0  0  0  0  0  0  0
  -14.3115  -42.6570  -19.1930 C   0  0  0  0  0  0  0  0  0  0  0  0
  -14.9545  -43.6985  -18.5319 C   0  0  0  0  0  0  0  0  0  0  0  0
  -14.8832  -43.7426  -17.0486 C   0  0  0  0  0  0  0  0  0  0  0  0
  -15.9957  -42.9606  -16.3959 C   0  0  0  0  0  0  0  0  0  0  0  0
  -16.7651  -43.4264  -15.5663 O   0  0  0  0  0  0  0  0  0  0  0  0
  -16.0338  -41.6568  -16.7160 O   0  0  0  0  0  0  0  0  0  0  0  0
  -15.7917  -44.5793  -19.2231 C   0  0  0  0  0  0  0  0  0  0  0  0
  -15.9805  -44.4307  -20.5931 C   0  0  0  0  0  0  0  0  0  0  0  0
  -16.9709  -45.2507  -21.2891 C   0  0  0  0  0  0  0  0  0  0  0  0
  -17.4181  -46.5252  -20.9981 C   0  0  0  0  0  0  0  0  0  0  0  0
  -18.3262  -47.0046  -21.9764 C   0  0  0  0  0  0  0  0  0  0  0  0
  -18.5302  -46.0860  -22.9836 C   0  0  0  0  0  0  0  0  0  0  0  0
  -17.8288  -44.5933  -22.6242 S   0  0  0  0  0  0  0  0  0  0  0  0
  -15.2785  -43.4150  -21.2531 C   0  0  0  0  0  0  0  0  0  0  0  0
  -16.6006  -39.4151  -25.0679 C   0  0  1  0  0  0  0  0  0  0  0  0
  -16.3560  -38.0108  -25.6275 C   0  0  0  0  0  0  0  0  0  0  0  0
  -15.3399  -38.0069  -26.6200 O   0  0  0  0  0  0  0  0  0  0  0  0
  -17.5605  -40.1496  -25.9896 N   0  0  0  0  0  0  0  0  0  0  0  0
  -19.1832  -39.8682  -25.6123 S   0  0  0  0  0  0  0  0  0  0  0  0
  -20.0416  -40.6575  -26.9346 C   0  0  0  0  0  0  0  0  0  0  0  0
  -19.4917  -40.5601  -24.3812 O   0  0  0  0  0  0  0  0  0  0  0  0
  -19.4175  -38.4452  -25.7585 O   0  0  0  0  0  0  0  0  0  0  0  0
  2  1  1  6
  2  3  1  0
  3  4  1  0
  4  5  1  0
  5  6  1  1
  6  7  1  0
  7  8  1  0
  8  9  2  3
  9 10  1  0
  9 11  1  0
 11 12  1  0
 12 13  2  0
 13 14  1  0
 14 15  1  0
 15 16  1  0
 16 17  2  0
 16 18  1  0
 14 19  2  0
 19 20  1  0
 20 21  1  0
 21 22  2  0
 22 23  1  0
 23 24  2  0
 24 25  1  0
 20 26  2  0
  5 27  1  0
 27 28  1  6
 28 29  1  0
 27 30  1  0
 30 31  1  0
 31 32  1  0
 31 33  2  0
 31 34  2  0
 30  2  1  0
 26 12  1  0
 25 21  1  0
M  END
>  <HIPPO Pose ID>  (22) 
80946

>  <energy_score>  (22) 
-90.528404

>  <csv_name>  (22) 
primer_grip_n_pocket_fstein_bulkdock_input_split1000_batch000.csv

>  <fragmenstein_mode>  (22) 
expansion

>  <exports>  (22) 
['/opt/xchem-fragalysis-2/maxwin/BulkDock/OUTPUTS/primer_grip_n_pocket_fstein_bulkdock_input_split1000_batch000_217912.sdf']

>  <name>  (22) 
XMPPJQZLUAYVLR-RYGJVYDSSA-N

>  <ref_pdb>  (22) 
d0851a

>  <scratch_subdir>  (22) 
/opt/xchem-fragalysis-2/maxwin/BulkDock/SCRATCH/217912/C67525-P66

>  <ref_mols>  (22) 
d0851a,6h80-a

>  <original ID>  (22) 
XMPPJQZLUAYVLR-RYGJVYDSSA-N

>  <fragmenstein_runtime>  (22) 
12.346729

>  <alias>  (22) 
None

>  <SLURM_JOB_ID>  (22) 
217912

>  <original SMILES>  (22) 
C[C@H]1CC[C@H](NCN=C(O)Cc2cc(CC(=O)O)cc(-c3cccs3)c2)[C@@H](CO)N1S(C)(=O)=O

>  <tags>  (22) 
['Fragmenstein placed']

>  <inchikey>  (22) 
XMPPJQZLUAYVLR-RYGJVYDSSA-N

>  <SLURM_JOB_NAME>  (22) 
BulkDock.place:Flavi_NS5_RdRp:primer_grip_n_pocket_fstein_bulkdock_input_split1000_batch000

>  <fragmenstein_outcome>  (22) 
acceptable

>  <distance_score>  (22) 
0.666973

>  <HIPPO Compound ID>  (22) 
67525

>  <fragmenstein_error>  (22) 
None

$$$$
81568
     RDKit          3D

 36 40  0  0  0  0  0  0  0  0999 V2000
  -17.9994  -43.1425  -16.0521 O   0  0  0  0  0  0  0  0  0  0  0  0
  -17.3608  -44.1876  -16.0956 C   0  0  0  0  0  0  0  0  0  0  0  0
  -17.8727  -45.3630  -15.6734 O   0  0  0  0  0  0  0  0  0  0  0  0
  -15.9790  -44.3483  -16.6790 C   0  0  0  0  0  0  0  0  0  0  0  0
  -15.8975  -44.1303  -18.1780 C   0  0  0  0  0  0  0  0  0  0  0  0
  -15.0254  -43.1709  -18.7113 C   0  0  0  0  0  0  0  0  0  0  0  0
  -14.8390  -43.0336  -20.0952 C   0  0  0  0  0  0  0  0  0  0  0  0
  -13.9161  -42.0041  -20.7238 C   0  0  0  0  0  0  0  0  0  0  0  0
  -12.7322  -41.5167  -19.9161 C   0  0  0  0  0  0  0  0  0  0  0  0
  -12.5015  -41.7780  -18.7429 O   0  0  0  0  0  0  0  0  0  0  0  0
  -11.9881  -40.6548  -20.6796 O   0  0  0  0  0  0  0  0  0  0  0  0
  -10.8051  -40.2069  -20.0294 C   0  0  0  0  0  0  0  0  0  0  0  0
  -10.4308  -38.8347  -20.3759 N   0  0  0  0  0  0  0  0  0  0  0  0
  -11.5735  -37.9259  -20.2597 C   0  0  2  0  0  0  0  0  0  0  0  0
  -12.3945  -37.7574  -21.5493 C   0  0  0  0  0  0  0  0  0  0  0  0
  -12.5971  -36.2487  -21.7356 C   0  0  0  0  0  0  0  0  0  0  0  0
  -12.1733  -35.6095  -20.4058 C   0  0  1  0  0  0  0  0  0  0  0  0
  -11.0565  -36.5334  -19.9353 C   0  0  0  0  0  0  0  0  0  0  0  0
  -11.6762  -34.2799  -20.5283 N   0  0  0  0  0  0  0  0  0  0  0  0
  -12.4718  -33.1968  -20.7214 C   0  0  0  0  0  0  0  0  0  0  0  0
  -12.0466  -32.1666  -21.2309 O   0  0  0  0  0  0  0  0  0  0  0  0
  -13.8460  -33.3497  -20.2219 C   0  0  0  0  0  0  0  0  0  0  0  0
  -14.7422  -32.2866  -20.2968 C   0  0  0  0  0  0  0  0  0  0  0  0
  -16.0002  -32.4138  -19.7133 C   0  0  0  0  0  0  0  0  0  0  0  0
  -16.3506  -33.5963  -19.0616 C   0  0  0  0  0  0  0  0  0  0  0  0
  -15.4488  -34.6608  -18.9990 C   0  0  0  0  0  0  0  0  0  0  0  0
  -14.1946  -34.5589  -19.6034 C   0  0  0  0  0  0  0  0  0  0  0  0
  -13.2661  -35.6135  -19.4357 N   0  0  0  0  0  0  0  0  0  0  0  0
  -15.6209  -43.8314  -20.9513 C   0  0  0  0  0  0  0  0  0  0  0  0
  -16.5541  -44.7567  -20.4540 C   0  0  0  0  0  0  0  0  0  0  0  0
  -17.4399  -45.5321  -21.3425 C   0  0  0  0  0  0  0  0  0  0  0  0
  -18.0189  -46.7733  -21.1359 C   0  0  0  0  0  0  0  0  0  0  0  0
  -18.8456  -47.1933  -22.2191 C   0  0  0  0  0  0  0  0  0  0  0  0
  -18.8908  -46.2553  -23.2218 C   0  0  0  0  0  0  0  0  0  0  0  0
  -17.9699  -44.8733  -22.8387 S   0  0  0  0  0  0  0  0  0  0  0  0
  -16.6446  -44.9208  -19.0623 C   0  0  0  0  0  0  0  0  0  0  0  0
  1  2  2  0
  2  3  1  0
  2  4  1  0
  4  5  1  0
  5  6  2  0
  6  7  1  0
  7  8  1  0
  8  9  1  0
  9 10  2  0
  9 11  1  0
 11 12  1  0
 12 13  1  0
 14 13  1  6
 14 15  1  0
 15 16  1  0
 17 16  1  6
 17 18  1  0
 17 19  1  0
 19 20  1  0
 20 21  2  0
 20 22  1  0
 22 23  2  0
 23 24  1  0
 24 25  2  0
 25 26  1  0
 26 27  2  0
 27 28  1  0
  7 29  2  0
 29 30  1  0
 30 31  1  0
 31 32  2  0
 32 33  1  0
 33 34  2  0
 34 35  1  0
 30 36  2  0
 36  5  1  0
 18 14  1  0
 27 22  1  0
 35 31  1  0
 28 17  1  0
M  END
>  <HIPPO Pose ID>  (23) 
81568

>  <energy_score>  (23) 
-69.302785

>  <csv_name>  (23) 
primer_grip_n_pocket_fstein_bulkdock_input_split1000_batch000.csv

>  <fragmenstein_mode>  (23) 
expansion

>  <exports>  (23) 
['/opt/xchem-fragalysis-2/maxwin/BulkDock/OUTPUTS/primer_grip_n_pocket_fstein_bulkdock_input_split1000_batch000_217912.sdf']

>  <name>  (23) 
FREJTMYWSQBBCX-HRFSGMKKSA-N

>  <ref_pdb>  (23) 
5i3p-a

>  <scratch_subdir>  (23) 
/opt/xchem-fragalysis-2/maxwin/BulkDock/SCRATCH/217912/C67564-P212

>  <ref_mols>  (23) 
d1196a,5i3p-a

>  <original ID>  (23) 
FREJTMYWSQBBCX-HRFSGMKKSA-N

>  <fragmenstein_runtime>  (23) 
22.501493

>  <alias>  (23) 
None

>  <SLURM_JOB_ID>  (23) 
217912

>  <original SMILES>  (23) 
O=C(O)Cc1cc(CC(=O)OCN[C@@H]2CC[C@@]3(C2)NC(=O)c2ccccc2N3)cc(-c2cccs2)c1

>  <tags>  (23) 
['Fragmenstein placed']

>  <inchikey>  (23) 
FREJTMYWSQBBCX-HRFSGMKKSA-N

>  <SLURM_JOB_NAME>  (23) 
BulkDock.place:Flavi_NS5_RdRp:primer_grip_n_pocket_fstein_bulkdock_input_split1000_batch000

>  <fragmenstein_outcome>  (23) 
acceptable

>  <distance_score>  (23) 
0.897386

>  <HIPPO Compound ID>  (23) 
67564

>  <fragmenstein_error>  (23) 
None

$$$$
81588
     RDKit          3D

 15 16  0  0  0  0  0  0  0  0999 V2000
  -14.4960  -44.6436  -19.6425 C   0  0  0  0  0  0  0  0  0  0  0  0
  -15.4556  -45.1764  -20.1320 C   0  0  0  0  0  0  0  0  0  0  0  0
  -16.5501  -45.7919  -20.7945 C   0  0  0  0  0  0  0  0  0  0  0  0
  -17.2494  -46.9140  -20.4333 C   0  0  0  0  0  0  0  0  0  0  0  0
  -18.2166  -47.0409  -21.3956 N   0  0  0  0  0  0  0  0  0  0  0  0
  -18.0430  -46.0223  -22.2890 C   0  0  0  0  0  0  0  0  0  0  0  0
  -17.0327  -45.2561  -21.9522 N   0  0  0  0  0  0  0  0  0  0  0  0
  -13.2451  -44.0705  -19.1431 C   0  0  0  0  0  0  0  0  0  0  0  0
  -13.2346  -43.5841  -17.6837 C   0  0  0  0  0  0  0  0  0  0  0  0
  -14.3088  -43.9529  -16.7521 N   0  0  0  0  0  0  0  0  0  0  0  0
  -14.0585  -43.3164  -15.4392 C   0  0  0  0  0  0  0  0  0  0  0  0
  -15.1857  -43.6082  -14.4485 C   0  0  0  0  0  0  0  0  0  0  0  0
  -15.4281  -45.0116  -14.3289 O   0  0  0  0  0  0  0  0  0  0  0  0
  -15.7627  -45.5745  -15.5930 C   0  0  0  0  0  0  0  0  0  0  0  0
  -14.5663  -45.3862  -16.5211 C   0  0  0  0  0  0  0  0  0  0  0  0
  1  2  3  0
  2  3  1  0
  3  4  2  0
  4  5  1  0
  5  6  1  0
  6  7  2  0
  1  8  1  0
  8  9  1  0
  9 10  1  0
 10 11  1  0
 11 12  1  0
 12 13  1  0
 13 14  1  0
 14 15  1  0
  7  3  1  0
 15 10  1  0
M  END
>  <HIPPO Pose ID>  (24) 
81588

>  <energy_score>  (24) 
-24.955036

>  <csv_name>  (24) 
primer_grip_n_pocket_fstein_bulkdock_input_split1000_batch000.csv

>  <fragmenstein_mode>  (24) 
expansion

>  <exports>  (24) 
['/opt/xchem-fragalysis-2/maxwin/BulkDock/OUTPUTS/primer_grip_n_pocket_fstein_bulkdock_input_split1000_batch000_217912.sdf']

>  <name>  (24) 
UMKSHAWQKLJWHR-UHFFFAOYSA-N

>  <ref_pdb>  (24) 
d0472a

>  <scratch_subdir>  (24) 
/opt/xchem-fragalysis-2/maxwin/BulkDock/SCRATCH/217912/C67569-P42

>  <ref_mols>  (24) 
d0472a,z0052a

>  <original ID>  (24) 
UMKSHAWQKLJWHR-UHFFFAOYSA-N

>  <fragmenstein_runtime>  (24) 
3.892542

>  <alias>  (24) 
None

>  <SLURM_JOB_ID>  (24) 
217912

>  <original SMILES>  (24) 
C(#Cc1c[nH]cn1)CCN1CCOCC1

>  <tags>  (24) 
['Fragmenstein placed']

>  <inchikey>  (24) 
UMKSHAWQKLJWHR-UHFFFAOYSA-N

>  <SLURM_JOB_NAME>  (24) 
BulkDock.place:Flavi_NS5_RdRp:primer_grip_n_pocket_fstein_bulkdock_input_split1000_batch000

>  <fragmenstein_outcome>  (24) 
acceptable

>  <distance_score>  (24) 
0.921287

>  <HIPPO Compound ID>  (24) 
67569

>  <fragmenstein_error>  (24) 
None

$$$$
81823
     RDKit          3D

 44 47  0  0  0  0  0  0  0  0999 V2000
  -14.6003  -38.4210  -17.1684 C   0  0  0  0  0  0  0  0  0  0  0  0
  -14.0764  -38.5595  -15.8514 O   0  0  0  0  0  0  0  0  0  0  0  0
  -14.6036  -39.5527  -15.0724 C   0  0  0  0  0  0  0  0  0  0  0  0
  -13.9828  -39.7405  -13.8322 C   0  0  0  0  0  0  0  0  0  0  0  0
  -14.4122  -40.7405  -12.9552 C   0  0  0  0  0  0  0  0  0  0  0  0
  -15.4605  -41.5783  -13.3277 C   0  0  0  0  0  0  0  0  0  0  0  0
  -16.0740  -41.3950  -14.5673 C   0  0  0  0  0  0  0  0  0  0  0  0
  -17.2515  -42.5765  -15.1666 S   0  0  0  0  0  0  0  0  0  0  0  0
  -17.0730  -43.8206  -14.4540 O   0  0  0  0  0  0  0  0  0  0  0  0
  -18.5270  -41.9073  -15.2713 O   0  0  0  0  0  0  0  0  0  0  0  0
  -16.6874  -42.8032  -16.6874 N   0  0  0  0  0  0  0  0  0  0  0  0
  -15.3323  -43.3861  -17.1861 C   0  0  0  0  0  0  0  0  0  0  0  0
  -14.4503  -43.8618  -16.5901 O   0  0  0  0  0  0  0  0  0  0  0  0
  -15.2468  -43.3001  -18.6509 C   0  0  0  0  0  0  0  0  0  0  0  0
  -16.2589  -43.9040  -19.3866 C   0  0  0  0  0  0  0  0  0  0  0  0
  -16.1911  -43.9247  -20.7788 C   0  0  0  0  0  0  0  0  0  0  0  0
  -17.2434  -44.6367  -21.4784 C   0  0  0  0  0  0  0  0  0  0  0  0
  -17.7952  -45.8292  -21.0772 C   0  0  0  0  0  0  0  0  0  0  0  0
  -18.5534  -46.3816  -22.1180 C   0  0  0  0  0  0  0  0  0  0  0  0
  -18.6976  -45.5498  -23.2238 C   0  0  0  0  0  0  0  0  0  0  0  0
  -19.3113  -45.9206  -24.4772 C   0  0  0  0  0  0  0  0  0  0  0  0
  -19.7673  -46.3387  -25.5119 C   0  0  0  0  0  0  0  0  0  0  0  0
  -20.1564  -46.8862  -26.8217 C   0  0  0  0  0  0  0  0  0  0  0  0
  -21.5095  -47.2500  -26.8904 O   0  0  0  0  0  0  0  0  0  0  0  0
  -17.9687  -44.0533  -22.9143 S   0  0  0  0  0  0  0  0  0  0  0  0
  -15.0784  -43.3544  -21.4134 C   0  0  0  0  0  0  0  0  0  0  0  0
  -14.9698  -43.3813  -22.7835 O   0  0  0  0  0  0  0  0  0  0  0  0
  -15.0252  -42.0562  -23.3474 C   0  0  0  0  0  0  0  0  0  0  0  0
  -16.1282  -41.2700  -22.7775 N   0  0  0  0  0  0  0  0  0  0  0  0
  -16.4174  -40.0730  -23.3136 N   0  0  0  0  0  0  0  0  0  0  0  0
  -16.5660  -39.0969  -22.5925 C   0  0  0  0  0  0  0  0  0  0  0  0
  -16.1416  -39.1523  -21.1038 C   0  0  0  0  0  0  0  0  0  0  0  0
  -17.1063  -37.6303  -22.9301 N   0  0  0  0  0  0  0  0  0  0  0  0
  -17.6505  -37.0908  -24.1451 C   0  0  0  0  0  0  0  0  0  0  0  0
  -17.2822  -37.8062  -25.3974 C   0  0  0  0  0  0  0  0  0  0  0  0
  -18.0318  -38.0729  -26.4559 N   0  0  0  0  0  0  0  0  0  0  0  0
  -17.2630  -38.9472  -27.1887 C   0  0  0  0  0  0  0  0  0  0  0  0
  -16.0543  -39.1904  -26.6000 C   0  0  0  0  0  0  0  0  0  0  0  0
  -16.0314  -38.3579  -25.5293 N   0  0  0  0  0  0  0  0  0  0  0  0
  -14.0606  -42.7625  -20.6651 C   0  0  0  0  0  0  0  0  0  0  0  0
  -14.1559  -42.6931  -19.2778 C   0  0  0  0  0  0  0  0  0  0  0  0
  -13.2615  -42.0492  -18.4733 O   0  0  0  0  0  0  0  0  0  0  0  0
  -12.3407  -41.1767  -19.1167 C   0  0  0  0  0  0  0  0  0  0  0  0
  -15.6719  -40.3669  -15.4274 C   0  0  0  0  0  0  0  0  0  0  0  0
  1  2  1  0
  2  3  1  0
  3  4  2  0
  4  5  1  0
  5  6  2  0
  6  7  1  0
  7  8  1  0
  8  9  2  0
  8 10  2  0
  8 11  1  0
 11 12  1  0
 12 13  2  0
 12 14  1  0
 14 15  2  0
 15 16  1  0
 16 17  1  0
 17 18  2  0
 18 19  1  0
 19 20  2  0
 20 21  1  0
 21 22  3  0
 22 23  1  0
 23 24  1  0
 20 25  1  0
 16 26  2  0
 26 27  1  0
 27 28  1  0
 28 29  1  0
 29 30  1  0
 30 31  2  3
 31 32  1  0
 31 33  1  0
 33 34  1  0
 34 35  1  0
 35 36  2  0
 36 37  1  0
 37 38  2  0
 38 39  1  0
 26 40  1  0
 40 41  2  0
 41 42  1  0
 42 43  1  0
  7 44  2  0
 44  3  1  0
 41 14  1  0
 25 17  1  0
 39 35  1  0
M  END
>  <HIPPO Pose ID>  (25) 
81823

>  <energy_score>  (25) 
-194.891346

>  <csv_name>  (25) 
primer_grip_n_pocket_fstein_bulkdock_input_split1000_batch000.csv

>  <fragmenstein_mode>  (25) 
expansion

>  <exports>  (25) 
['/opt/xchem-fragalysis-2/maxwin/BulkDock/OUTPUTS/primer_grip_n_pocket_fstein_bulkdock_input_split1000_batch000_217912.sdf']

>  <name>  (25) 
OZJCZSGHYGYDMC-UHFFFAOYSA-N

>  <ref_pdb>  (25) 
d0615b

>  <scratch_subdir>  (25) 
/opt/xchem-fragalysis-2/maxwin/BulkDock/SCRATCH/217912/C67621-P51

>  <ref_mols>  (25) 
d0615b,5i3p-a

>  <original ID>  (25) 
OZJCZSGHYGYDMC-UHFFFAOYSA-N

>  <fragmenstein_runtime>  (25) 
10.586115

>  <alias>  (25) 
None

>  <SLURM_JOB_ID>  (25) 
217912

>  <original SMILES>  (25) 
COc1cccc(S(=O)(=O)NC(=O)c2cc(-c3ccc(C#CCO)s3)c(OCNN=C(C)NCc3ncc[nH]3)cc2OC)c1

>  <tags>  (25) 
['Fragmenstein placed']

>  <inchikey>  (25) 
OZJCZSGHYGYDMC-UHFFFAOYSA-N

>  <SLURM_JOB_NAME>  (25) 
BulkDock.place:Flavi_NS5_RdRp:primer_grip_n_pocket_fstein_bulkdock_input_split1000_batch000

>  <fragmenstein_outcome>  (25) 
acceptable

>  <distance_score>  (25) 
0.787559

>  <HIPPO Compound ID>  (25) 
67621

>  <fragmenstein_error>  (25) 
None

$$$$
81900
     RDKit          3D

 40 43  0  0  0  0  0  0  0  0999 V2000
  -14.5636  -43.7512  -23.0692 C   0  0  0  0  0  0  0  0  0  0  0  0
  -15.2451  -42.9324  -22.1424 O   0  0  0  0  0  0  0  0  0  0  0  0
  -15.1814  -43.3720  -20.8303 C   0  0  0  0  0  0  0  0  0  0  0  0
  -14.4019  -42.5092  -20.0177 C   0  0  0  0  0  0  0  0  0  0  0  0
  -13.4788  -41.4899  -20.6776 C   0  0  0  0  0  0  0  0  0  0  0  0
  -14.1434  -40.1913  -21.0516 C   0  0  0  0  0  0  0  0  0  0  0  0
  -15.3097  -39.8682  -20.8959 O   0  0  0  0  0  0  0  0  0  0  0  0
  -13.2815  -39.3232  -21.6265 O   0  0  0  0  0  0  0  0  0  0  0  0
  -14.5833  -42.5285  -18.6209 C   0  0  0  0  0  0  0  0  0  0  0  0
  -14.0130  -41.3898  -17.8025 C   0  0  0  0  0  0  0  0  0  0  0  0
  -15.4093  -43.5270  -18.0556 C   0  0  0  0  0  0  0  0  0  0  0  0
  -15.7103  -43.4446  -16.5902 C   0  0  0  0  0  0  0  0  0  0  0  0
  -16.7824  -43.1321  -16.2321 O   0  0  0  0  0  0  0  0  0  0  0  0
  -14.4027  -43.7216  -15.7642 N   0  0  0  0  0  0  0  0  0  0  0  0
  -14.0983  -43.5534  -14.1400 S   0  0  0  0  0  0  0  0  0  0  0  0
  -14.7834  -42.3487  -13.7266 O   0  0  0  0  0  0  0  0  0  0  0  0
  -14.3399  -44.8702  -13.5924 O   0  0  0  0  0  0  0  0  0  0  0  0
  -12.3459  -43.1969  -14.0638 C   0  0  0  0  0  0  0  0  0  0  0  0
  -11.6430  -42.8026  -15.2150 C   0  0  0  0  0  0  0  0  0  0  0  0
  -10.2769  -42.5469  -15.1535 C   0  0  0  0  0  0  0  0  0  0  0  0
   -9.6126  -42.6658  -13.9413 C   0  0  0  0  0  0  0  0  0  0  0  0
  -10.3168  -43.0087  -12.7797 C   0  0  0  0  0  0  0  0  0  0  0  0
   -9.6474  -43.0782  -11.5493 C   0  0  0  0  0  0  0  0  0  0  0  0
  -10.3510  -43.3733  -10.3923 C   0  0  0  0  0  0  0  0  0  0  0  0
  -11.7044  -43.5888  -10.5125 C   0  0  0  0  0  0  0  0  0  0  0  0
  -12.3666  -43.5453  -11.6885 N   0  0  0  0  0  0  0  0  0  0  0  0
  -11.7078  -43.2707  -12.8230 C   0  0  0  0  0  0  0  0  0  0  0  0
  -16.1086  -44.4384  -18.8828 C   0  0  0  0  0  0  0  0  0  0  0  0
  -16.9087  -45.3655  -18.2642 O   0  0  0  0  0  0  0  0  0  0  0  0
  -16.0651  -44.3660  -20.2973 C   0  0  0  0  0  0  0  0  0  0  0  0
  -17.0125  -45.1571  -21.1553 C   0  0  0  0  0  0  0  0  0  0  0  0
  -17.3742  -46.5084  -20.9741 C   0  0  0  0  0  0  0  0  0  0  0  0
  -18.2785  -47.1674  -21.8501 C   0  0  0  0  0  0  0  0  0  0  0  0
  -18.8174  -46.4781  -22.9278 C   0  0  0  0  0  0  0  0  0  0  0  0
  -19.5861  -46.9954  -24.0078 C   0  0  0  0  0  0  0  0  0  0  0  0
  -20.1206  -47.0295  -25.0833 C   0  0  0  0  0  0  0  0  0  0  0  0
  -20.6591  -46.8222  -26.4237 C   0  0  0  0  0  0  0  0  0  0  0  0
  -21.4541  -45.6498  -26.4053 O   0  0  0  0  0  0  0  0  0  0  0  0
  -18.4792  -45.1573  -23.1034 C   0  0  0  0  0  0  0  0  0  0  0  0
  -17.6279  -44.5238  -22.2309 C   0  0  0  0  0  0  0  0  0  0  0  0
  1  2  1  0
  2  3  1  0
  3  4  2  0
  4  5  1  0
  5  6  1  0
  6  7  2  0
  6  8  1  0
  4  9  1  0
  9 10  1  0
  9 11  2  0
 11 12  1  0
 12 13  2  0
 12 14  1  0
 14 15  1  0
 15 16  2  0
 15 17  2  0
 15 18  1  0
 18 19  2  0
 19 20  1  0
 20 21  2  0
 21 22  1  0
 22 23  2  0
 23 24  1  0
 24 25  2  0
 25 26  1  0
 26 27  2  0
 11 28  1  0
 28 29  1  0
 28 30  2  0
 30 31  1  0
 31 32  2  0
 32 33  1  0
 33 34  2  0
 34 35  1  0
 35 36  3  0
 36 37  1  0
 37 38  1  0
 34 39  1  0
 39 40  2  0
 30  3  1  0
 40 31  1  0
 27 18  1  0
 27 22  1  0
M  END
>  <HIPPO Pose ID>  (26) 
81900

>  <energy_score>  (26) 
-46.066638

>  <csv_name>  (26) 
primer_grip_n_pocket_fstein_bulkdock_input_split1000_batch000.csv

>  <fragmenstein_mode>  (26) 
expansion

>  <exports>  (26) 
['/opt/xchem-fragalysis-2/maxwin/BulkDock/OUTPUTS/primer_grip_n_pocket_fstein_bulkdock_input_split1000_batch000_217912.sdf']

>  <name>  (26) 
YSMVIYHCRPGPLF-UHFFFAOYSA-N

>  <ref_pdb>  (26) 
5hn0-a

>  <scratch_subdir>  (26) 
/opt/xchem-fragalysis-2/maxwin/BulkDock/SCRATCH/217912/C67640-P213

>  <ref_mols>  (26) 
5hn0-a,5f41-a

>  <original ID>  (26) 
YSMVIYHCRPGPLF-UHFFFAOYSA-N

>  <fragmenstein_runtime>  (26) 
48.194884

>  <alias>  (26) 
None

>  <SLURM_JOB_ID>  (26) 
217912

>  <original SMILES>  (26) 
COc1c(CC(=O)O)c(C)c(C(=O)NS(=O)(=O)c2cccc3cccnc23)c(O)c1-c1ccc(C#CCO)cc1

>  <tags>  (26) 
['Fragmenstein placed']

>  <inchikey>  (26) 
YSMVIYHCRPGPLF-UHFFFAOYSA-N

>  <SLURM_JOB_NAME>  (26) 
BulkDock.place:Flavi_NS5_RdRp:primer_grip_n_pocket_fstein_bulkdock_input_split1000_batch000

>  <fragmenstein_outcome>  (26) 
acceptable

>  <distance_score>  (26) 
0.888721

>  <HIPPO Compound ID>  (26) 
67640

>  <fragmenstein_error>  (26) 
None

$$$$
81906
     RDKit          3D

 40 43  0  0  0  0  0  0  0  0999 V2000
  -14.7083  -43.8645  -23.4532 C   0  0  0  0  0  0  0  0  0  0  0  0
  -15.4681  -42.9863  -22.6486 O   0  0  0  0  0  0  0  0  0  0  0  0
  -15.3250  -43.2481  -21.3054 C   0  0  0  0  0  0  0  0  0  0  0  0
  -14.4606  -42.3542  -20.5977 C   0  0  0  0  0  0  0  0  0  0  0  0
  -13.5605  -41.4041  -21.3634 C   0  0  0  0  0  0  0  0  0  0  0  0
  -14.0472  -39.9813  -21.3832 C   0  0  0  0  0  0  0  0  0  0  0  0
  -15.1697  -39.5753  -21.1238 O   0  0  0  0  0  0  0  0  0  0  0  0
  -13.0979  -39.1065  -21.7817 O   0  0  0  0  0  0  0  0  0  0  0  0
  -14.5110  -42.2852  -19.1939 C   0  0  0  0  0  0  0  0  0  0  0  0
  -13.7276  -41.2648  -18.4064 C   0  0  0  0  0  0  0  0  0  0  0  0
  -15.4389  -43.1021  -18.5509 C   0  0  0  0  0  0  0  0  0  0  0  0
  -15.8866  -42.7524  -17.1890 C   0  0  0  0  0  0  0  0  0  0  0  0
  -16.6826  -41.9133  -17.0289 O   0  0  0  0  0  0  0  0  0  0  0  0
  -15.1463  -43.6396  -16.1627 N   0  0  0  0  0  0  0  0  0  0  0  0
  -15.3196  -43.7591  -14.5518 S   0  0  0  0  0  0  0  0  0  0  0  0
  -16.7411  -43.6236  -14.2976 O   0  0  0  0  0  0  0  0  0  0  0  0
  -14.6193  -44.9652  -14.1661 O   0  0  0  0  0  0  0  0  0  0  0  0
  -14.5042  -42.3470  -13.8860 C   0  0  0  0  0  0  0  0  0  0  0  0
  -15.2456  -41.5287  -13.0126 C   0  0  0  0  0  0  0  0  0  0  0  0
  -14.6583  -40.4145  -12.4344 C   0  0  0  0  0  0  0  0  0  0  0  0
  -13.3318  -40.1264  -12.7226 C   0  0  0  0  0  0  0  0  0  0  0  0
  -12.5918  -40.9471  -13.5917 C   0  0  0  0  0  0  0  0  0  0  0  0
  -11.2498  -40.6410  -13.8478 C   0  0  0  0  0  0  0  0  0  0  0  0
  -10.5001  -41.4489  -14.6855 C   0  0  0  0  0  0  0  0  0  0  0  0
  -11.1301  -42.5297  -15.2607 C   0  0  0  0  0  0  0  0  0  0  0  0
  -12.4336  -42.8395  -15.0721 N   0  0  0  0  0  0  0  0  0  0  0  0
  -13.1696  -42.0849  -14.2110 C   0  0  0  0  0  0  0  0  0  0  0  0
  -16.1860  -44.0612  -19.2465 C   0  0  0  0  0  0  0  0  0  0  0  0
  -17.0176  -44.8545  -18.4953 O   0  0  0  0  0  0  0  0  0  0  0  0
  -16.1778  -44.1655  -20.6538 C   0  0  0  0  0  0  0  0  0  0  0  0
  -17.0813  -45.1527  -21.3233 C   0  0  0  0  0  0  0  0  0  0  0  0
  -17.1906  -46.4420  -20.7809 C   0  0  0  0  0  0  0  0  0  0  0  0
  -18.1239  -47.3637  -21.2465 C   0  0  0  0  0  0  0  0  0  0  0  0
  -18.9437  -47.0803  -22.3229 C   0  0  0  0  0  0  0  0  0  0  0  0
  -19.8632  -48.1086  -22.7194 C   0  0  0  0  0  0  0  0  0  0  0  0
  -20.5688  -49.0668  -22.9579 C   0  0  0  0  0  0  0  0  0  0  0  0
  -21.3410  -50.4184  -23.2651 C   0  0  0  0  0  0  0  0  0  0  0  0
  -22.0478  -50.4799  -24.5414 O   0  0  0  0  0  0  0  0  0  0  0  0
  -18.8090  -45.8405  -22.9406 C   0  0  0  0  0  0  0  0  0  0  0  0
  -17.9084  -44.8758  -22.4259 C   0  0  0  0  0  0  0  0  0  0  0  0
  1  2  1  0
  2  3  1  0
  3  4  2  0
  4  5  1  0
  5  6  1  0
  6  7  2  0
  6  8  1  0
  4  9  1  0
  9 10  1  0
  9 11  2  0
 11 12  1  0
 12 13  2  0
 12 14  1  0
 14 15  1  0
 15 16  2  0
 15 17  2  0
 15 18  1  0
 18 19  2  0
 19 20  1  0
 20 21  2  0
 21 22  1  0
 22 23  2  0
 23 24  1  0
 24 25  2  0
 25 26  1  0
 26 27  2  0
 11 28  1  0
 28 29  1  0
 28 30  2  0
 30 31  1  0
 31 32  2  0
 32 33  1  0
 33 34  2  0
 34 35  1  0
 35 36  3  0
 36 37  1  0
 37 38  1  0
 34 39  1  0
 39 40  2  0
 30  3  1  0
 40 31  1  0
 27 18  1  0
 27 22  1  0
M  END
>  <HIPPO Pose ID>  (27) 
81906

>  <energy_score>  (27) 
-60.472794

>  <csv_name>  (27) 
primer_grip_n_pocket_fstein_bulkdock_input_split1000_batch000.csv

>  <fragmenstein_mode>  (27) 
expansion

>  <exports>  (27) 
['/opt/xchem-fragalysis-2/maxwin/BulkDock/OUTPUTS/primer_grip_n_pocket_fstein_bulkdock_input_split1000_batch000_217912.sdf']

>  <name>  (27) 
YSMVIYHCRPGPLF-UHFFFAOYSA-N

>  <ref_pdb>  (27) 
5f41-a

>  <scratch_subdir>  (27) 
/opt/xchem-fragalysis-2/maxwin/BulkDock/SCRATCH/217912/C67640-P214

>  <ref_mols>  (27) 
5hn0-a,5f41-a

>  <original ID>  (27) 
YSMVIYHCRPGPLF-UHFFFAOYSA-N

>  <fragmenstein_runtime>  (27) 
30.128898

>  <alias>  (27) 
None

>  <SLURM_JOB_ID>  (27) 
217912

>  <original SMILES>  (27) 
COc1c(CC(=O)O)c(C)c(C(=O)NS(=O)(=O)c2cccc3cccnc23)c(O)c1-c1ccc(C#CCO)cc1

>  <tags>  (27) 
['Fragmenstein placed']

>  <inchikey>  (27) 
YSMVIYHCRPGPLF-UHFFFAOYSA-N

>  <SLURM_JOB_NAME>  (27) 
BulkDock.place:Flavi_NS5_RdRp:primer_grip_n_pocket_fstein_bulkdock_input_split1000_batch000

>  <fragmenstein_outcome>  (27) 
acceptable

>  <distance_score>  (27) 
0.933414

>  <HIPPO Compound ID>  (27) 
67640

>  <fragmenstein_error>  (27) 
None

$$$$
81911
     RDKit          3D

 39 41  0  0  0  0  0  0  0  0999 V2000
  -10.7645  -41.1645  -12.1881 C   0  0  0  0  0  0  0  0  0  0  0  0
  -10.4745  -42.3871  -12.8574 O   0  0  0  0  0  0  0  0  0  0  0  0
  -11.5545  -43.1376  -13.2329 C   0  0  0  0  0  0  0  0  0  0  0  0
  -11.2794  -44.4782  -13.5070 C   0  0  0  0  0  0  0  0  0  0  0  0
  -12.2996  -45.3509  -13.8915 C   0  0  0  0  0  0  0  0  0  0  0  0
  -13.6021  -44.8849  -14.0306 C   0  0  0  0  0  0  0  0  0  0  0  0
  -13.8668  -43.5319  -13.8201 C   0  0  0  0  0  0  0  0  0  0  0  0
  -15.4668  -42.8733  -14.2093 S   0  0  0  0  0  0  0  0  0  0  0  0
  -16.5062  -43.7273  -13.6958 O   0  0  0  0  0  0  0  0  0  0  0  0
  -15.4278  -41.4570  -13.9276 O   0  0  0  0  0  0  0  0  0  0  0  0
  -15.4933  -42.9842  -15.8412 N   0  0  0  0  0  0  0  0  0  0  0  0
  -15.5026  -44.2325  -16.7679 C   0  0  0  0  0  0  0  0  0  0  0  0
  -15.4150  -45.3679  -16.5081 O   0  0  0  0  0  0  0  0  0  0  0  0
  -15.5340  -43.8520  -18.2045 C   0  0  0  0  0  0  0  0  0  0  0  0
  -16.3649  -44.5875  -19.0658 C   0  0  0  0  0  0  0  0  0  0  0  0
  -17.2575  -45.4332  -18.4431 O   0  0  0  0  0  0  0  0  0  0  0  0
  -16.3417  -44.4557  -20.4824 C   0  0  0  0  0  0  0  0  0  0  0  0
  -17.1771  -45.3946  -21.3049 C   0  0  0  0  0  0  0  0  0  0  0  0
  -17.1922  -46.7409  -20.8856 C   0  0  0  0  0  0  0  0  0  0  0  0
  -18.0736  -47.6716  -21.4018 C   0  0  0  0  0  0  0  0  0  0  0  0
  -18.9023  -47.3308  -22.4364 C   0  0  0  0  0  0  0  0  0  0  0  0
  -18.7895  -46.0783  -23.0212 C   0  0  0  0  0  0  0  0  0  0  0  0
  -19.4451  -45.9989  -24.2921 C   0  0  0  0  0  0  0  0  0  0  0  0
  -19.9837  -46.1713  -25.3564 C   0  0  0  0  0  0  0  0  0  0  0  0
  -20.5232  -46.3810  -26.7005 C   0  0  0  0  0  0  0  0  0  0  0  0
  -21.9193  -46.6184  -26.6536 O   0  0  0  0  0  0  0  0  0  0  0  0
  -17.9752  -45.0838  -22.4301 C   0  0  0  0  0  0  0  0  0  0  0  0
  -15.4500  -43.4717  -20.9717 C   0  0  0  0  0  0  0  0  0  0  0  0
  -15.4968  -43.0150  -22.2645 O   0  0  0  0  0  0  0  0  0  0  0  0
  -14.7974  -43.8515  -23.1572 C   0  0  0  0  0  0  0  0  0  0  0  0
  -14.6073  -42.7043  -20.1221 C   0  0  0  0  0  0  0  0  0  0  0  0
  -13.6416  -41.6840  -20.6930 C   0  0  0  0  0  0  0  0  0  0  0  0
  -14.1895  -40.2802  -20.7442 C   0  0  0  0  0  0  0  0  0  0  0  0
  -15.3504  -39.9899  -21.0020 O   0  0  0  0  0  0  0  0  0  0  0  0
  -13.2459  -39.3261  -20.5610 O   0  0  0  0  0  0  0  0  0  0  0  0
  -14.6744  -42.8931  -18.7357 C   0  0  0  0  0  0  0  0  0  0  0  0
  -13.9702  -42.0309  -17.9322 O   0  0  0  0  0  0  0  0  0  0  0  0
  -12.7624  -42.6134  -17.4439 C   0  0  0  0  0  0  0  0  0  0  0  0
  -12.8528  -42.6590  -13.3990 C   0  0  0  0  0  0  0  0  0  0  0  0
  1  2  1  0
  2  3  1  0
  3  4  2  0
  4  5  1  0
  5  6  2  0
  6  7  1  0
  7  8  1  0
  8  9  2  0
  8 10  2  0
  8 11  1  0
 11 12  1  0
 12 13  2  0
 12 14  1  0
 14 15  2  0
 15 16  1  0
 15 17  1  0
 17 18  1  0
 18 19  2  0
 19 20  1  0
 20 21  2  0
 21 22  1  0
 22 23  1  0
 23 24  3  0
 24 25  1  0
 25 26  1  0
 22 27  2  0
 17 28  2  0
 28 29  1  0
 29 30  1  0
 28 31  1  0
 31 32  1  0
 32 33  1  0
 33 34  2  0
 33 35  1  0
 31 36  2  0
 36 37  1  0
 37 38  1  0
  7 39  2  0
 39  3  1  0
 36 14  1  0
 27 18  1  0
M  END
>  <HIPPO Pose ID>  (28) 
81911

>  <energy_score>  (28) 
-186.823037

>  <csv_name>  (28) 
primer_grip_n_pocket_fstein_bulkdock_input_split1000_batch000.csv

>  <fragmenstein_mode>  (28) 
expansion

>  <exports>  (28) 
['/opt/xchem-fragalysis-2/maxwin/BulkDock/OUTPUTS/primer_grip_n_pocket_fstein_bulkdock_input_split1000_batch000_217912.sdf']

>  <name>  (28) 
HNVBFMCTJOJMIM-UHFFFAOYSA-N

>  <ref_pdb>  (28) 
5hn0-a

>  <scratch_subdir>  (28) 
/opt/xchem-fragalysis-2/maxwin/BulkDock/SCRATCH/217912/C67642-P213

>  <ref_mols>  (28) 
5hn0-a,5hmy-a

>  <original ID>  (28) 
HNVBFMCTJOJMIM-UHFFFAOYSA-N

>  <fragmenstein_runtime>  (28) 
11.981025

>  <alias>  (28) 
None

>  <SLURM_JOB_ID>  (28) 
217912

>  <original SMILES>  (28) 
COc1cccc(S(=O)(=O)NC(=O)c2c(O)c(-c3cccc(C#CCO)c3)c(OC)c(CC(=O)O)c2OC)c1

>  <tags>  (28) 
['Fragmenstein placed']

>  <inchikey>  (28) 
HNVBFMCTJOJMIM-UHFFFAOYSA-N

>  <SLURM_JOB_NAME>  (28) 
BulkDock.place:Flavi_NS5_RdRp:primer_grip_n_pocket_fstein_bulkdock_input_split1000_batch000

>  <fragmenstein_outcome>  (28) 
acceptable

>  <distance_score>  (28) 
0.941859

>  <HIPPO Compound ID>  (28) 
67642

>  <fragmenstein_error>  (28) 
None

$$$$
82075
     RDKit          3D

 25 26  0  0  0  0  0  0  0  0999 V2000
  -15.8476  -46.9142  -18.0457 C   0  0  0  0  0  0  0  0  0  0  0  0
  -16.6439  -45.7499  -18.2525 O   0  0  0  0  0  0  0  0  0  0  0  0
  -16.0017  -44.7730  -18.9526 C   0  0  0  0  0  0  0  0  0  0  0  0
  -15.2380  -43.8510  -18.2040 C   0  0  0  0  0  0  0  0  0  0  0  0
  -15.2298  -43.8461  -16.6884 C   0  0  0  0  0  0  0  0  0  0  0  0
  -16.6019  -43.7615  -16.0547 C   0  0  0  0  0  0  0  0  0  0  0  0
  -17.4094  -42.8462  -16.1554 O   0  0  0  0  0  0  0  0  0  0  0  0
  -16.8872  -44.8433  -15.3002 O   0  0  0  0  0  0  0  0  0  0  0  0
  -14.4496  -42.9282  -18.8940 C   0  0  0  0  0  0  0  0  0  0  0  0
  -14.4686  -42.8834  -20.2903 C   0  0  0  0  0  0  0  0  0  0  0  0
  -13.5650  -41.9235  -21.0274 C   0  0  0  0  0  0  0  0  0  0  0  0
  -14.0476  -40.4983  -20.9998 C   0  0  0  0  0  0  0  0  0  0  0  0
  -15.1917  -40.1063  -20.8247 O   0  0  0  0  0  0  0  0  0  0  0  0
  -13.0666  -39.6105  -21.2662 O   0  0  0  0  0  0  0  0  0  0  0  0
  -15.3540  -43.7183  -20.9964 C   0  0  0  0  0  0  0  0  0  0  0  0
  -16.1847  -44.6526  -20.3478 C   0  0  0  0  0  0  0  0  0  0  0  0
  -17.2026  -45.4354  -21.1202 C   0  0  0  0  0  0  0  0  0  0  0  0
  -17.8836  -46.6069  -20.8188 C   0  0  0  0  0  0  0  0  0  0  0  0
  -18.7579  -47.0554  -21.8591 C   0  0  0  0  0  0  0  0  0  0  0  0
  -18.7891  -46.1864  -22.9189 C   0  0  0  0  0  0  0  0  0  0  0  0
  -19.5269  -46.3832  -24.1268 C   0  0  0  0  0  0  0  0  0  0  0  0
  -20.0782  -46.4977  -25.1898 C   0  0  0  0  0  0  0  0  0  0  0  0
  -20.6329  -46.5429  -26.5422 C   0  0  0  0  0  0  0  0  0  0  0  0
  -22.0428  -46.3582  -26.4974 O   0  0  0  0  0  0  0  0  0  0  0  0
  -17.7920  -44.8392  -22.6358 S   0  0  0  0  0  0  0  0  0  0  0  0
  1  2  1  0
  2  3  1  0
  3  4  2  0
  4  5  1  0
  5  6  1  0
  6  7  2  0
  6  8  1  0
  4  9  1  0
  9 10  2  0
 10 11  1  0
 11 12  1  0
 12 13  2  0
 12 14  1  0
 10 15  1  0
 15 16  2  0
 16 17  1  0
 17 18  2  0
 18 19  1  0
 19 20  2  0
 20 21  1  0
 21 22  3  0
 22 23  1  0
 23 24  1  0
 20 25  1  0
 16  3  1  0
 25 17  1  0
M  END
>  <HIPPO Pose ID>  (29) 
82075

>  <energy_score>  (29) 
-82.226969

>  <csv_name>  (29) 
primer_grip_n_pocket_fstein_bulkdock_input_split1000_batch000.csv

>  <fragmenstein_mode>  (29) 
expansion

>  <exports>  (29) 
['/opt/xchem-fragalysis-2/maxwin/BulkDock/OUTPUTS/primer_grip_n_pocket_fstein_bulkdock_input_split1000_batch000_217912.sdf']

>  <name>  (29) 
RIGFXPYYCKCHGJ-UHFFFAOYSA-N

>  <ref_pdb>  (29) 
5hmy-a

>  <scratch_subdir>  (29) 
/opt/xchem-fragalysis-2/maxwin/BulkDock/SCRATCH/217912/C67659-P216

>  <ref_mols>  (29) 
z0052a,z0103a,5hmy-a,5i3q-a,5hmx-b,5k5m-a

>  <original ID>  (29) 
RIGFXPYYCKCHGJ-UHFFFAOYSA-N

>  <fragmenstein_runtime>  (29) 
6.168025

>  <alias>  (29) 
None

>  <SLURM_JOB_ID>  (29) 
217912

>  <original SMILES>  (29) 
COc1c(CC(=O)O)cc(CC(=O)O)cc1-c1ccc(C#CCO)s1

>  <tags>  (29) 
['Fragmenstein placed']

>  <inchikey>  (29) 
RIGFXPYYCKCHGJ-UHFFFAOYSA-N

>  <SLURM_JOB_NAME>  (29) 
BulkDock.place:Flavi_NS5_RdRp:primer_grip_n_pocket_fstein_bulkdock_input_split1000_batch000

>  <fragmenstein_outcome>  (29) 
acceptable

>  <distance_score>  (29) 
1.019154

>  <HIPPO Compound ID>  (29) 
67659

>  <fragmenstein_error>  (29) 
None

$$$$
82085
     RDKit          3D

 25 26  0  0  0  0  0  0  0  0999 V2000
  -14.6399  -43.8630  -23.1591 C   0  0  0  0  0  0  0  0  0  0  0  0
  -15.4931  -43.1233  -22.3023 O   0  0  0  0  0  0  0  0  0  0  0  0
  -15.4804  -43.5637  -21.0016 C   0  0  0  0  0  0  0  0  0  0  0  0
  -14.6291  -42.8688  -20.1100 C   0  0  0  0  0  0  0  0  0  0  0  0
  -13.6512  -41.8166  -20.5788 C   0  0  0  0  0  0  0  0  0  0  0  0
  -14.1693  -40.4196  -20.3755 C   0  0  0  0  0  0  0  0  0  0  0  0
  -14.9748  -39.8290  -21.0812 O   0  0  0  0  0  0  0  0  0  0  0  0
  -13.6769  -39.8259  -19.2683 O   0  0  0  0  0  0  0  0  0  0  0  0
  -14.7266  -43.1049  -18.7264 C   0  0  0  0  0  0  0  0  0  0  0  0
  -15.6538  -44.0126  -18.2143 C   0  0  0  0  0  0  0  0  0  0  0  0
  -15.7598  -44.2657  -16.7222 C   0  0  0  0  0  0  0  0  0  0  0  0
  -16.5089  -43.2294  -15.9133 C   0  0  0  0  0  0  0  0  0  0  0  0
  -17.2606  -42.3473  -16.2988 O   0  0  0  0  0  0  0  0  0  0  0  0
  -16.2975  -43.3912  -14.5868 O   0  0  0  0  0  0  0  0  0  0  0  0
  -16.4656  -44.7143  -19.1218 C   0  0  0  0  0  0  0  0  0  0  0  0
  -16.4125  -44.5162  -20.5243 C   0  0  0  0  0  0  0  0  0  0  0  0
  -17.3355  -45.3365  -21.3610 C   0  0  0  0  0  0  0  0  0  0  0  0
  -17.8611  -46.5910  -21.0717 C   0  0  0  0  0  0  0  0  0  0  0  0
  -18.6963  -47.1170  -22.1026 C   0  0  0  0  0  0  0  0  0  0  0  0
  -18.8278  -46.2409  -23.1511 C   0  0  0  0  0  0  0  0  0  0  0  0
  -19.5787  -46.4929  -24.3417 C   0  0  0  0  0  0  0  0  0  0  0  0
  -20.1839  -46.6425  -25.3705 C   0  0  0  0  0  0  0  0  0  0  0  0
  -20.8447  -46.7413  -26.6709 C   0  0  0  0  0  0  0  0  0  0  0  0
  -22.1625  -46.2049  -26.5869 O   0  0  0  0  0  0  0  0  0  0  0  0
  -17.9844  -44.7882  -22.8522 S   0  0  0  0  0  0  0  0  0  0  0  0
  1  2  1  0
  2  3  1  0
  3  4  2  0
  4  5  1  0
  5  6  1  0
  6  7  2  0
  6  8  1  0
  4  9  1  0
  9 10  2  0
 10 11  1  0
 11 12  1  0
 12 13  2  0
 12 14  1  0
 10 15  1  0
 15 16  2  0
 16 17  1  0
 17 18  2  0
 18 19  1  0
 19 20  2  0
 20 21  1  0
 21 22  3  0
 22 23  1  0
 23 24  1  0
 20 25  1  0
 16  3  1  0
 25 17  1  0
M  END
>  <HIPPO Pose ID>  (30) 
82085

>  <energy_score>  (30) 
-81.057224

>  <csv_name>  (30) 
primer_grip_n_pocket_fstein_bulkdock_input_split1000_batch000.csv

>  <fragmenstein_mode>  (30) 
expansion

>  <exports>  (30) 
['/opt/xchem-fragalysis-2/maxwin/BulkDock/OUTPUTS/primer_grip_n_pocket_fstein_bulkdock_input_split1000_batch000_217912.sdf']

>  <name>  (30) 
RIGFXPYYCKCHGJ-UHFFFAOYSA-N

>  <ref_pdb>  (30) 
5i3q-a

>  <scratch_subdir>  (30) 
/opt/xchem-fragalysis-2/maxwin/BulkDock/SCRATCH/217912/C67659-P221

>  <ref_mols>  (30) 
5hmy-a,5i3q-a

>  <original ID>  (30) 
RIGFXPYYCKCHGJ-UHFFFAOYSA-N

>  <fragmenstein_runtime>  (30) 
4.007996

>  <alias>  (30) 
None

>  <SLURM_JOB_ID>  (30) 
217912

>  <original SMILES>  (30) 
COc1c(CC(=O)O)cc(CC(=O)O)cc1-c1ccc(C#CCO)s1

>  <tags>  (30) 
['Fragmenstein placed']

>  <inchikey>  (30) 
RIGFXPYYCKCHGJ-UHFFFAOYSA-N

>  <SLURM_JOB_NAME>  (30) 
BulkDock.place:Flavi_NS5_RdRp:primer_grip_n_pocket_fstein_bulkdock_input_split1000_batch000

>  <fragmenstein_outcome>  (30) 
acceptable

>  <distance_score>  (30) 
0.511882

>  <HIPPO Compound ID>  (30) 
67659

>  <fragmenstein_error>  (30) 
None

$$$$
82087
     RDKit          3D

 25 26  0  0  0  0  0  0  0  0999 V2000
  -14.0970  -44.0253  -22.9443 C   0  0  0  0  0  0  0  0  0  0  0  0
  -14.9494  -43.2742  -22.0940 O   0  0  0  0  0  0  0  0  0  0  0  0
  -14.9893  -43.7363  -20.8008 C   0  0  0  0  0  0  0  0  0  0  0  0
  -14.1365  -43.0841  -19.8800 C   0  0  0  0  0  0  0  0  0  0  0  0
  -13.1057  -42.0656  -20.3148 C   0  0  0  0  0  0  0  0  0  0  0  0
  -13.6139  -40.6535  -20.2239 C   0  0  0  0  0  0  0  0  0  0  0  0
  -14.2652  -40.0547  -21.0671 O   0  0  0  0  0  0  0  0  0  0  0  0
  -13.3162  -40.0608  -19.0482 O   0  0  0  0  0  0  0  0  0  0  0  0
  -14.2817  -43.3294  -18.5032 C   0  0  0  0  0  0  0  0  0  0  0  0
  -15.2419  -44.2221  -18.0251 C   0  0  0  0  0  0  0  0  0  0  0  0
  -15.4060  -44.4418  -16.5320 C   0  0  0  0  0  0  0  0  0  0  0  0
  -16.1468  -43.3394  -15.7900 C   0  0  0  0  0  0  0  0  0  0  0  0
  -16.9358  -42.5401  -16.2803 O   0  0  0  0  0  0  0  0  0  0  0  0
  -15.9137  -43.3340  -14.4579 O   0  0  0  0  0  0  0  0  0  0  0  0
  -16.0469  -44.8960  -18.9618 C   0  0  0  0  0  0  0  0  0  0  0  0
  -15.9631  -44.6655  -20.3602 C   0  0  0  0  0  0  0  0  0  0  0  0
  -16.8987  -45.4268  -21.2388 C   0  0  0  0  0  0  0  0  0  0  0  0
  -17.4341  -46.6913  -21.0229 C   0  0  0  0  0  0  0  0  0  0  0  0
  -18.2834  -47.1396  -22.0786 C   0  0  0  0  0  0  0  0  0  0  0  0
  -18.3977  -46.2067  -23.0807 C   0  0  0  0  0  0  0  0  0  0  0  0
  -19.1337  -46.4034  -24.2915 C   0  0  0  0  0  0  0  0  0  0  0  0
  -19.7315  -46.5866  -25.3193 C   0  0  0  0  0  0  0  0  0  0  0  0
  -20.4143  -46.8608  -26.5820 C   0  0  0  0  0  0  0  0  0  0  0  0
  -21.5795  -46.0424  -26.7024 O   0  0  0  0  0  0  0  0  0  0  0  0
  -17.5380  -44.7850  -22.7007 S   0  0  0  0  0  0  0  0  0  0  0  0
  1  2  1  0
  2  3  1  0
  3  4  2  0
  4  5  1  0
  5  6  1  0
  6  7  2  0
  6  8  1  0
  4  9  1  0
  9 10  2  0
 10 11  1  0
 11 12  1  0
 12 13  2  0
 12 14  1  0
 10 15  1  0
 15 16  2  0
 16 17  1  0
 17 18  2  0
 18 19  1  0
 19 20  2  0
 20 21  1  0
 21 22  3  0
 22 23  1  0
 23 24  1  0
 20 25  1  0
 16  3  1  0
 25 17  1  0
M  END
>  <HIPPO Pose ID>  (31) 
82087

>  <energy_score>  (31) 
-74.285712

>  <csv_name>  (31) 
primer_grip_n_pocket_fstein_bulkdock_input_split1000_batch000.csv

>  <fragmenstein_mode>  (31) 
expansion

>  <exports>  (31) 
['/opt/xchem-fragalysis-2/maxwin/BulkDock/OUTPUTS/primer_grip_n_pocket_fstein_bulkdock_input_split1000_batch000_217912.sdf']

>  <name>  (31) 
RIGFXPYYCKCHGJ-UHFFFAOYSA-N

>  <ref_pdb>  (31) 
5k5m-a

>  <scratch_subdir>  (31) 
/opt/xchem-fragalysis-2/maxwin/BulkDock/SCRATCH/217912/C67659-P225

>  <ref_mols>  (31) 
5hmy-a,5k5m-a

>  <original ID>  (31) 
RIGFXPYYCKCHGJ-UHFFFAOYSA-N

>  <fragmenstein_runtime>  (31) 
5.47791

>  <alias>  (31) 
None

>  <SLURM_JOB_ID>  (31) 
217912

>  <original SMILES>  (31) 
COc1c(CC(=O)O)cc(CC(=O)O)cc1-c1ccc(C#CCO)s1

>  <tags>  (31) 
['Fragmenstein placed']

>  <inchikey>  (31) 
RIGFXPYYCKCHGJ-UHFFFAOYSA-N

>  <SLURM_JOB_NAME>  (31) 
BulkDock.place:Flavi_NS5_RdRp:primer_grip_n_pocket_fstein_bulkdock_input_split1000_batch000

>  <fragmenstein_outcome>  (31) 
acceptable

>  <distance_score>  (31) 
0.710481

>  <HIPPO Compound ID>  (31) 
67659

>  <fragmenstein_error>  (31) 
None

$$$$
82323
     RDKit          3D

 21 22  0  0  0  0  0  0  0  0999 V2000
  -14.1129  -44.0168  -23.0442 C   0  0  0  0  0  0  0  0  0  0  0  0
  -14.9161  -43.2508  -22.1606 O   0  0  0  0  0  0  0  0  0  0  0  0
  -14.9287  -43.7431  -20.8794 C   0  0  0  0  0  0  0  0  0  0  0  0
  -14.0290  -43.1306  -19.9792 C   0  0  0  0  0  0  0  0  0  0  0  0
  -13.0279  -42.0879  -20.4230 C   0  0  0  0  0  0  0  0  0  0  0  0
  -13.5696  -40.6912  -20.2884 C   0  0  0  0  0  0  0  0  0  0  0  0
  -14.2102  -40.0713  -21.1234 O   0  0  0  0  0  0  0  0  0  0  0  0
  -13.3351  -40.1480  -19.0744 O   0  0  0  0  0  0  0  0  0  0  0  0
  -14.1100  -43.4267  -18.6128 C   0  0  0  0  0  0  0  0  0  0  0  0
  -15.0875  -44.2948  -18.1255 C   0  0  0  0  0  0  0  0  0  0  0  0
  -15.2600  -44.4889  -16.6331 C   0  0  0  0  0  0  0  0  0  0  0  0
  -16.3543  -43.6383  -16.0233 C   0  0  0  0  0  0  0  0  0  0  0  0
  -17.1138  -44.0230  -15.1475 O   0  0  0  0  0  0  0  0  0  0  0  0
  -16.4609  -42.3750  -16.5147 O   0  0  0  0  0  0  0  0  0  0  0  0
  -15.9516  -44.9217  -19.0380 C   0  0  0  0  0  0  0  0  0  0  0  0
  -15.9010  -44.6697  -20.4287 C   0  0  0  0  0  0  0  0  0  0  0  0
  -16.8719  -45.3981  -21.2882 C   0  0  0  0  0  0  0  0  0  0  0  0
  -17.4262  -46.6565  -21.0814 C   0  0  0  0  0  0  0  0  0  0  0  0
  -18.3099  -47.0680  -22.1215 C   0  0  0  0  0  0  0  0  0  0  0  0
  -18.4241  -46.1090  -23.0961 C   0  0  0  0  0  0  0  0  0  0  0  0
  -17.5320  -44.7100  -22.7135 S   0  0  0  0  0  0  0  0  0  0  0  0
  1  2  1  0
  2  3  1  0
  3  4  2  0
  4  5  1  0
  5  6  1  0
  6  7  2  0
  6  8  1  0
  4  9  1  0
  9 10  2  0
 10 11  1  0
 11 12  1  0
 12 13  2  0
 12 14  1  0
 10 15  1  0
 15 16  2  0
 16 17  1  0
 17 18  2  0
 18 19  1  0
 19 20  2  0
 20 21  1  0
 16  3  1  0
 21 17  1  0
M  END
>  <HIPPO Pose ID>  (32) 
82323

>  <energy_score>  (32) 
-68.883358

>  <csv_name>  (32) 
primer_grip_n_pocket_fstein_bulkdock_input_split1000_batch000.csv

>  <fragmenstein_mode>  (32) 
expansion

>  <exports>  (32) 
['/opt/xchem-fragalysis-2/maxwin/BulkDock/OUTPUTS/primer_grip_n_pocket_fstein_bulkdock_input_split1000_batch000_217912.sdf']

>  <name>  (32) 
AESJIQFVXABWJT-UHFFFAOYSA-N

>  <ref_pdb>  (32) 
5k5m-a

>  <scratch_subdir>  (32) 
/opt/xchem-fragalysis-2/maxwin/BulkDock/SCRATCH/217912/C67661-P225

>  <ref_mols>  (32) 
5hmx-b,5k5m-a

>  <original ID>  (32) 
AESJIQFVXABWJT-UHFFFAOYSA-N

>  <fragmenstein_runtime>  (32) 
5.582531

>  <alias>  (32) 
None

>  <SLURM_JOB_ID>  (32) 
217912

>  <original SMILES>  (32) 
COc1c(CC(=O)O)cc(CC(=O)O)cc1-c1cccs1

>  <tags>  (32) 
['Fragmenstein placed']

>  <inchikey>  (32) 
AESJIQFVXABWJT-UHFFFAOYSA-N

>  <SLURM_JOB_NAME>  (32) 
BulkDock.place:Flavi_NS5_RdRp:primer_grip_n_pocket_fstein_bulkdock_input_split1000_batch000

>  <fragmenstein_outcome>  (32) 
acceptable

>  <distance_score>  (32) 
0.665161

>  <HIPPO Compound ID>  (32) 
67661

>  <fragmenstein_error>  (32) 
None

$$$$
82326
     RDKit          3D

 21 22  0  0  0  0  0  0  0  0999 V2000
  -14.6788  -43.9370  -23.1846 C   0  0  0  0  0  0  0  0  0  0  0  0
  -15.4646  -43.1537  -22.3012 O   0  0  0  0  0  0  0  0  0  0  0  0
  -15.4667  -43.6005  -21.0011 C   0  0  0  0  0  0  0  0  0  0  0  0
  -14.5965  -42.9357  -20.1111 C   0  0  0  0  0  0  0  0  0  0  0  0
  -13.5243  -41.9915  -20.5965 C   0  0  0  0  0  0  0  0  0  0  0  0
  -13.9002  -40.5326  -20.5371 C   0  0  0  0  0  0  0  0  0  0  0  0
  -15.0247  -40.0779  -20.7021 O   0  0  0  0  0  0  0  0  0  0  0  0
  -12.8254  -39.7263  -20.3372 O   0  0  0  0  0  0  0  0  0  0  0  0
  -14.7375  -43.1243  -18.7261 C   0  0  0  0  0  0  0  0  0  0  0  0
  -15.7250  -43.9647  -18.2128 C   0  0  0  0  0  0  0  0  0  0  0  0
  -15.9488  -44.0735  -16.7230 C   0  0  0  0  0  0  0  0  0  0  0  0
  -16.4564  -42.7901  -16.1034 C   0  0  0  0  0  0  0  0  0  0  0  0
  -17.6001  -42.3536  -16.1583 O   0  0  0  0  0  0  0  0  0  0  0  0
  -15.4819  -42.1067  -15.4710 O   0  0  0  0  0  0  0  0  0  0  0  0
  -16.5229  -44.6821  -19.1141 C   0  0  0  0  0  0  0  0  0  0  0  0
  -16.4305  -44.5147  -20.5157 C   0  0  0  0  0  0  0  0  0  0  0  0
  -17.3663  -45.3095  -21.3474 C   0  0  0  0  0  0  0  0  0  0  0  0
  -17.8774  -46.5755  -21.0873 C   0  0  0  0  0  0  0  0  0  0  0  0
  -18.7472  -47.0571  -22.1076 C   0  0  0  0  0  0  0  0  0  0  0  0
  -18.9007  -46.1373  -23.1147 C   0  0  0  0  0  0  0  0  0  0  0  0
  -18.0550  -44.6953  -22.7899 S   0  0  0  0  0  0  0  0  0  0  0  0
  1  2  1  0
  2  3  1  0
  3  4  2  0
  4  5  1  0
  5  6  1  0
  6  7  2  0
  6  8  1  0
  4  9  1  0
  9 10  2  0
 10 11  1  0
 11 12  1  0
 12 13  2  0
 12 14  1  0
 10 15  1  0
 15 16  2  0
 16 17  1  0
 17 18  2  0
 18 19  1  0
 19 20  2  0
 20 21  1  0
 16  3  1  0
 21 17  1  0
M  END
>  <HIPPO Pose ID>  (33) 
82326

>  <energy_score>  (33) 
-64.02906

>  <csv_name>  (33) 
primer_grip_n_pocket_fstein_bulkdock_input_split1000_batch000.csv

>  <fragmenstein_mode>  (33) 
expansion

>  <exports>  (33) 
['/opt/xchem-fragalysis-2/maxwin/BulkDock/OUTPUTS/primer_grip_n_pocket_fstein_bulkdock_input_split1000_batch000_217912.sdf']

>  <name>  (33) 
AESJIQFVXABWJT-UHFFFAOYSA-N

>  <ref_pdb>  (33) 
5hmz-a

>  <scratch_subdir>  (33) 
/opt/xchem-fragalysis-2/maxwin/BulkDock/SCRATCH/217912/C67661-P227

>  <ref_mols>  (33) 
5hmx-b,5hmz-a

>  <original ID>  (33) 
AESJIQFVXABWJT-UHFFFAOYSA-N

>  <fragmenstein_runtime>  (33) 
3.991626

>  <alias>  (33) 
None

>  <SLURM_JOB_ID>  (33) 
217912

>  <original SMILES>  (33) 
COc1c(CC(=O)O)cc(CC(=O)O)cc1-c1cccs1

>  <tags>  (33) 
['Fragmenstein placed']

>  <inchikey>  (33) 
AESJIQFVXABWJT-UHFFFAOYSA-N

>  <SLURM_JOB_NAME>  (33) 
BulkDock.place:Flavi_NS5_RdRp:primer_grip_n_pocket_fstein_bulkdock_input_split1000_batch000

>  <fragmenstein_outcome>  (33) 
acceptable

>  <distance_score>  (33) 
0.753409

>  <HIPPO Compound ID>  (33) 
67661

>  <fragmenstein_error>  (33) 
None

$$$$
82415
     RDKit          3D

 29 30  0  0  0  0  0  0  0  0999 V2000
  -14.6063  -43.8465  -23.4390 C   0  0  0  0  0  0  0  0  0  0  0  0
  -15.4516  -43.0502  -22.6239 O   0  0  0  0  0  0  0  0  0  0  0  0
  -15.3512  -43.3991  -21.2990 C   0  0  0  0  0  0  0  0  0  0  0  0
  -16.2434  -44.3388  -20.7228 C   0  0  0  0  0  0  0  0  0  0  0  0
  -17.2324  -45.1858  -21.4436 C   0  0  0  0  0  0  0  0  0  0  0  0
  -17.7350  -46.4281  -21.0696 C   0  0  0  0  0  0  0  0  0  0  0  0
  -18.6397  -46.9901  -22.0225 C   0  0  0  0  0  0  0  0  0  0  0  0
  -18.8284  -46.1570  -23.0969 C   0  0  0  0  0  0  0  0  0  0  0  0
  -19.6002  -46.4577  -24.2604 C   0  0  0  0  0  0  0  0  0  0  0  0
  -20.1915  -46.6087  -25.2964 C   0  0  0  0  0  0  0  0  0  0  0  0
  -20.8119  -46.6625  -26.6185 C   0  0  0  0  0  0  0  0  0  0  0  0
  -22.1539  -46.1908  -26.5403 O   0  0  0  0  0  0  0  0  0  0  0  0
  -17.9995  -44.6817  -22.8892 S   0  0  0  0  0  0  0  0  0  0  0  0
  -16.1886  -44.4701  -19.3315 C   0  0  0  0  0  0  0  0  0  0  0  0
  -15.2826  -43.7252  -18.5652 C   0  0  0  0  0  0  0  0  0  0  0  0
  -15.4073  -43.8616  -17.1046 C   0  0  0  0  0  0  0  0  0  0  0  0
  -14.8045  -44.6616  -16.5139 O   0  0  0  0  0  0  0  0  0  0  0  0
  -16.4920  -42.8726  -16.6270 N   0  0  0  0  0  0  0  0  0  0  0  0
  -17.2092  -42.7107  -15.1748 S   0  0  0  0  0  0  0  0  0  0  0  0
  -15.9486  -41.9465  -14.1777 C   0  0  0  0  0  0  0  0  0  0  0  0
  -17.5018  -44.0346  -14.6875 O   0  0  0  0  0  0  0  0  0  0  0  0
  -18.2834  -41.7719  -15.4499 O   0  0  0  0  0  0  0  0  0  0  0  0
  -14.3503  -42.8529  -19.1306 C   0  0  0  0  0  0  0  0  0  0  0  0
  -13.3897  -42.1006  -18.2484 C   0  0  0  0  0  0  0  0  0  0  0  0
  -14.4223  -42.6461  -20.5200 C   0  0  0  0  0  0  0  0  0  0  0  0
  -13.5594  -41.5796  -21.1672 C   0  0  0  0  0  0  0  0  0  0  0  0
  -14.0008  -40.1776  -20.8257 C   0  0  0  0  0  0  0  0  0  0  0  0
  -15.1715  -39.8254  -20.7473 O   0  0  0  0  0  0  0  0  0  0  0  0
  -12.9815  -39.3078  -20.6481 O   0  0  0  0  0  0  0  0  0  0  0  0
  1  2  1  0
  2  3  1  0
  3  4  2  0
  4  5  1  0
  5  6  2  0
  6  7  1  0
  7  8  2  0
  8  9  1  0
  9 10  3  0
 10 11  1  0
 11 12  1  0
  8 13  1  0
  4 14  1  0
 14 15  2  0
 15 16  1  0
 16 17  2  0
 16 18  1  0
 18 19  1  0
 19 20  1  0
 19 21  2  0
 19 22  2  0
 15 23  1  0
 23 24  1  0
 23 25  2  0
 25 26  1  0
 26 27  1  0
 27 28  2  0
 27 29  1  0
 25  3  1  0
 13  5  1  0
M  END
>  <HIPPO Pose ID>  (34) 
82415

>  <energy_score>  (34) 
-609.525799

>  <csv_name>  (34) 
primer_grip_n_pocket_fstein_bulkdock_input_split1000_batch000.csv

>  <fragmenstein_mode>  (34) 
expansion

>  <exports>  (34) 
['/opt/xchem-fragalysis-2/maxwin/BulkDock/OUTPUTS/primer_grip_n_pocket_fstein_bulkdock_input_split1000_batch000_217912.sdf']

>  <name>  (34) 
RSUDUSBWNCTYGL-UHFFFAOYSA-N

>  <ref_pdb>  (34) 
5hmz-a

>  <scratch_subdir>  (34) 
/opt/xchem-fragalysis-2/maxwin/BulkDock/SCRATCH/217912/C67716-P227

>  <ref_mols>  (34) 
z0103a,5hn0-a,5hmz-a

>  <original ID>  (34) 
RSUDUSBWNCTYGL-UHFFFAOYSA-N

>  <fragmenstein_runtime>  (34) 
6.198316

>  <alias>  (34) 
None

>  <SLURM_JOB_ID>  (34) 
217912

>  <original SMILES>  (34) 
COc1c(-c2ccc(C#CCO)s2)cc(C(=O)NS(C)(=O)=O)c(C)c1CC(=O)O

>  <tags>  (34) 
['Fragmenstein placed']

>  <inchikey>  (34) 
RSUDUSBWNCTYGL-UHFFFAOYSA-N

>  <SLURM_JOB_NAME>  (34) 
BulkDock.place:Flavi_NS5_RdRp:primer_grip_n_pocket_fstein_bulkdock_input_split1000_batch000

>  <fragmenstein_outcome>  (34) 
acceptable

>  <distance_score>  (34) 
1.091769

>  <HIPPO Compound ID>  (34) 
67716

>  <fragmenstein_error>  (34) 
None

$$$$
82418
     RDKit          3D

 29 30  0  0  0  0  0  0  0  0999 V2000
  -14.5936  -43.6140  -23.3632 C   0  0  0  0  0  0  0  0  0  0  0  0
  -15.4141  -42.9833  -22.3988 O   0  0  0  0  0  0  0  0  0  0  0  0
  -15.2223  -43.4328  -21.1178 C   0  0  0  0  0  0  0  0  0  0  0  0
  -16.0735  -44.4184  -20.5524 C   0  0  0  0  0  0  0  0  0  0  0  0
  -17.0649  -45.2546  -21.2773 C   0  0  0  0  0  0  0  0  0  0  0  0
  -17.5029  -46.5380  -20.9686 C   0  0  0  0  0  0  0  0  0  0  0  0
  -18.4392  -47.0631  -21.9136 C   0  0  0  0  0  0  0  0  0  0  0  0
  -18.6882  -46.1705  -22.9241 C   0  0  0  0  0  0  0  0  0  0  0  0
  -19.4298  -46.4288  -24.1110 C   0  0  0  0  0  0  0  0  0  0  0  0
  -19.9959  -46.5350  -25.1646 C   0  0  0  0  0  0  0  0  0  0  0  0
  -20.7456  -46.5263  -26.4168 C   0  0  0  0  0  0  0  0  0  0  0  0
  -22.1148  -46.3887  -26.0620 O   0  0  0  0  0  0  0  0  0  0  0  0
  -17.9164  -44.6857  -22.6462 S   0  0  0  0  0  0  0  0  0  0  0  0
  -15.9844  -44.5938  -19.1690 C   0  0  0  0  0  0  0  0  0  0  0  0
  -15.1065  -43.8146  -18.4041 C   0  0  0  0  0  0  0  0  0  0  0  0
  -15.2039  -43.9475  -16.9404 C   0  0  0  0  0  0  0  0  0  0  0  0
  -14.5305  -44.6721  -16.3292 O   0  0  0  0  0  0  0  0  0  0  0  0
  -16.3671  -43.0386  -16.4854 N   0  0  0  0  0  0  0  0  0  0  0  0
  -17.0856  -42.8888  -15.0320 S   0  0  0  0  0  0  0  0  0  0  0  0
  -15.8702  -42.0163  -14.0708 C   0  0  0  0  0  0  0  0  0  0  0  0
  -17.2902  -44.2126  -14.5041 O   0  0  0  0  0  0  0  0  0  0  0  0
  -18.2130  -42.0161  -15.3183 O   0  0  0  0  0  0  0  0  0  0  0  0
  -14.2393  -42.8656  -18.9594 C   0  0  0  0  0  0  0  0  0  0  0  0
  -13.3159  -42.0913  -18.0576 C   0  0  0  0  0  0  0  0  0  0  0  0
  -14.2992  -42.6690  -20.3461 C   0  0  0  0  0  0  0  0  0  0  0  0
  -13.4802  -41.5731  -21.0086 C   0  0  0  0  0  0  0  0  0  0  0  0
  -14.1393  -40.2199  -20.9378 C   0  0  0  0  0  0  0  0  0  0  0  0
  -15.2424  -39.9498  -20.4887 O   0  0  0  0  0  0  0  0  0  0  0  0
  -13.3738  -39.2418  -21.4684 O   0  0  0  0  0  0  0  0  0  0  0  0
  1  2  1  0
  2  3  1  0
  3  4  2  0
  4  5  1  0
  5  6  2  0
  6  7  1  0
  7  8  2  0
  8  9  1  0
  9 10  3  0
 10 11  1  0
 11 12  1  0
  8 13  1  0
  4 14  1  0
 14 15  2  0
 15 16  1  0
 16 17  2  0
 16 18  1  0
 18 19  1  0
 19 20  1  0
 19 21  2  0
 19 22  2  0
 15 23  1  0
 23 24  1  0
 23 25  2  0
 25 26  1  0
 26 27  1  0
 27 28  2  0
 27 29  1  0
 25  3  1  0
 13  5  1  0
M  END
>  <HIPPO Pose ID>  (35) 
82418

>  <energy_score>  (35) 
-41.785664

>  <csv_name>  (35) 
primer_grip_n_pocket_fstein_bulkdock_input_split1000_batch000.csv

>  <fragmenstein_mode>  (35) 
expansion

>  <exports>  (35) 
['/opt/xchem-fragalysis-2/maxwin/BulkDock/OUTPUTS/primer_grip_n_pocket_fstein_bulkdock_input_split1000_batch000_217912.sdf']

>  <name>  (35) 
RSUDUSBWNCTYGL-UHFFFAOYSA-N

>  <ref_pdb>  (35) 
5hn0-a

>  <scratch_subdir>  (35) 
/opt/xchem-fragalysis-2/maxwin/BulkDock/SCRATCH/217912/C67716-P213

>  <ref_mols>  (35) 
5hn0-a,5hmz-a

>  <original ID>  (35) 
RSUDUSBWNCTYGL-UHFFFAOYSA-N

>  <fragmenstein_runtime>  (35) 
4.23034

>  <alias>  (35) 
None

>  <SLURM_JOB_ID>  (35) 
217912

>  <original SMILES>  (35) 
COc1c(-c2ccc(C#CCO)s2)cc(C(=O)NS(C)(=O)=O)c(C)c1CC(=O)O

>  <tags>  (35) 
['Fragmenstein placed']

>  <inchikey>  (35) 
RSUDUSBWNCTYGL-UHFFFAOYSA-N

>  <SLURM_JOB_NAME>  (35) 
BulkDock.place:Flavi_NS5_RdRp:primer_grip_n_pocket_fstein_bulkdock_input_split1000_batch000

>  <fragmenstein_outcome>  (35) 
acceptable

>  <distance_score>  (35) 
0.595517

>  <HIPPO Compound ID>  (35) 
67716

>  <fragmenstein_error>  (35) 
None

$$$$
82419
     RDKit          3D

 31 34  0  0  0  0  0  0  0  0999 V2000
  -14.6130  -40.0901  -20.2490 O   0  0  0  0  0  0  0  0  0  0  0  0
  -13.7475  -40.5562  -20.9761 C   0  0  0  0  0  0  0  0  0  0  0  0
  -12.9962  -39.7412  -21.7486 O   0  0  0  0  0  0  0  0  0  0  0  0
  -13.3665  -42.0099  -21.1270 C   0  0  0  0  0  0  0  0  0  0  0  0
  -14.3203  -42.9354  -20.4131 C   0  0  0  0  0  0  0  0  0  0  0  0
  -15.2238  -43.7278  -21.1313 C   0  0  0  0  0  0  0  0  0  0  0  0
  -16.2006  -44.4990  -20.4810 C   0  0  0  0  0  0  0  0  0  0  0  0
  -17.1663  -45.3043  -21.2513 C   0  0  0  0  0  0  0  0  0  0  0  0
  -17.5214  -46.6029  -20.8638 C   0  0  0  0  0  0  0  0  0  0  0  0
  -18.4106  -47.3626  -21.6278 C   0  0  0  0  0  0  0  0  0  0  0  0
  -18.9813  -46.8347  -22.7765 C   0  0  0  0  0  0  0  0  0  0  0  0
  -18.6406  -45.5564  -23.1803 C   0  0  0  0  0  0  0  0  0  0  0  0
  -17.7510  -44.8015  -22.4226 C   0  0  0  0  0  0  0  0  0  0  0  0
  -16.2520  -44.4348  -19.0779 C   0  0  0  0  0  0  0  0  0  0  0  0
  -15.3517  -43.6482  -18.3308 C   0  0  0  0  0  0  0  0  0  0  0  0
  -15.6030  -43.4519  -16.8366 C   0  0  2  0  0  0  0  0  0  0  0  0
  -16.6738  -42.3775  -16.6072 C   0  0  0  0  0  0  0  0  0  0  0  0
  -17.6598  -42.5363  -15.8964 O   0  0  0  0  0  0  0  0  0  0  0  0
  -16.4839  -41.2005  -17.2561 O   0  0  0  0  0  0  0  0  0  0  0  0
  -14.3847  -43.1369  -16.0123 C   0  0  0  0  0  0  0  0  0  0  0  0
  -13.4974  -43.9403  -15.3220 C   0  0  0  0  0  0  0  0  0  0  0  0
  -12.5403  -43.0618  -14.7338 C   0  0  0  0  0  0  0  0  0  0  0  0
  -11.3777  -43.3783  -13.8966 C   0  0  0  0  0  0  0  0  0  0  0  0
  -10.5069  -42.3596  -13.4913 C   0  0  0  0  0  0  0  0  0  0  0  0
   -9.4240  -42.6794  -12.6905 C   0  0  0  0  0  0  0  0  0  0  0  0
   -9.1498  -43.9281  -12.2661 N   0  0  0  0  0  0  0  0  0  0  0  0
  -10.0062  -44.8961  -12.6574 C   0  0  0  0  0  0  0  0  0  0  0  0
  -11.1113  -44.6791  -13.4682 C   0  0  0  0  0  0  0  0  0  0  0  0
  -12.8255  -41.7925  -15.0670 N   0  0  0  0  0  0  0  0  0  0  0  0
  -13.9839  -41.8584  -15.7233 N   0  0  0  0  0  0  0  0  0  0  0  0
  -14.3570  -42.9427  -19.0163 C   0  0  0  0  0  0  0  0  0  0  0  0
  1  2  2  0
  2  3  1  0
  2  4  1  0
  4  5  1  0
  5  6  2  0
  6  7  1  0
  7  8  1  0
  8  9  2  0
  9 10  1  0
 10 11  2  0
 11 12  1  0
 12 13  2  0
  7 14  2  0
 14 15  1  0
 15 16  1  0
 16 17  1  6
 17 18  2  0
 17 19  1  0
 16 20  1  0
 20 21  2  0
 21 22  1  0
 22 23  1  0
 23 24  2  0
 24 25  1  0
 25 26  2  0
 26 27  1  0
 27 28  2  0
 22 29  2  0
 29 30  1  0
 15 31  2  0
 31  5  1  0
 13  8  1  0
 30 20  1  0
 28 23  1  0
M  END
>  <HIPPO Pose ID>  (36) 
82419

>  <energy_score>  (36) 
-54.763692

>  <csv_name>  (36) 
primer_grip_n_pocket_fstein_bulkdock_input_split1000_batch000.csv

>  <fragmenstein_mode>  (36) 
expansion

>  <exports>  (36) 
['/opt/xchem-fragalysis-2/maxwin/BulkDock/OUTPUTS/primer_grip_n_pocket_fstein_bulkdock_input_split1000_batch000_217912.sdf']

>  <name>  (36) 
PLFWRPDYIAZGJA-QHCPKHFHSA-N

>  <ref_pdb>  (36) 
5hmx-b

>  <scratch_subdir>  (36) 
/opt/xchem-fragalysis-2/maxwin/BulkDock/SCRATCH/217912/C67718-P223

>  <ref_mols>  (36) 
5hmx-b,5hmz-a

>  <original ID>  (36) 
PLFWRPDYIAZGJA-QHCPKHFHSA-N

>  <fragmenstein_runtime>  (36) 
6.283455

>  <alias>  (36) 
None

>  <SLURM_JOB_ID>  (36) 
217912

>  <original SMILES>  (36) 
O=C(O)Cc1cc(-c2ccccc2)cc([C@H](C(=O)O)c2cc(-c3ccncc3)n[nH]2)c1

>  <tags>  (36) 
['Fragmenstein placed']

>  <inchikey>  (36) 
PLFWRPDYIAZGJA-QHCPKHFHSA-N

>  <SLURM_JOB_NAME>  (36) 
BulkDock.place:Flavi_NS5_RdRp:primer_grip_n_pocket_fstein_bulkdock_input_split1000_batch000

>  <fragmenstein_outcome>  (36) 
acceptable

>  <distance_score>  (36) 
0.985658

>  <HIPPO Compound ID>  (36) 
67718

>  <fragmenstein_error>  (36) 
None

$$$$
82423
     RDKit          3D

 21 22  0  0  0  0  0  0  0  0999 V2000
  -15.2292  -43.8114  -22.5733 N   0  0  0  0  0  0  0  0  0  0  0  0
  -15.3433  -43.8858  -21.1703 C   0  0  0  0  0  0  0  0  0  0  0  0
  -14.4909  -43.1138  -20.3544 C   0  0  0  0  0  0  0  0  0  0  0  0
  -13.4830  -42.1462  -20.9238 C   0  0  0  0  0  0  0  0  0  0  0  0
  -13.9051  -40.7064  -20.7869 C   0  0  0  0  0  0  0  0  0  0  0  0
  -15.0405  -40.2948  -20.9924 O   0  0  0  0  0  0  0  0  0  0  0  0
  -12.8907  -39.8756  -20.4537 O   0  0  0  0  0  0  0  0  0  0  0  0
  -14.5773  -43.2172  -18.9555 C   0  0  0  0  0  0  0  0  0  0  0  0
  -15.5424  -44.0242  -18.3539 C   0  0  0  0  0  0  0  0  0  0  0  0
  -15.6482  -44.1143  -16.8484 C   0  0  0  0  0  0  0  0  0  0  0  0
  -16.6341  -43.1749  -16.1907 C   0  0  0  0  0  0  0  0  0  0  0  0
  -17.0785  -43.3586  -15.0655 O   0  0  0  0  0  0  0  0  0  0  0  0
  -16.9905  -42.0789  -16.8995 O   0  0  0  0  0  0  0  0  0  0  0  0
  -16.4551  -44.7001  -19.1718 C   0  0  0  0  0  0  0  0  0  0  0  0
  -16.3920  -44.6389  -20.5799 C   0  0  0  0  0  0  0  0  0  0  0  0
  -17.3727  -45.4133  -21.3799 C   0  0  0  0  0  0  0  0  0  0  0  0
  -17.6682  -46.7492  -21.0637 C   0  0  0  0  0  0  0  0  0  0  0  0
  -18.5416  -47.5019  -21.8501 C   0  0  0  0  0  0  0  0  0  0  0  0
  -19.1386  -46.9411  -22.9677 C   0  0  0  0  0  0  0  0  0  0  0  0
  -18.8583  -45.6319  -23.3049 C   0  0  0  0  0  0  0  0  0  0  0  0
  -18.0166  -44.8649  -22.5000 C   0  0  0  0  0  0  0  0  0  0  0  0
  1  2  1  0
  2  3  2  0
  3  4  1  0
  4  5  1  0
  5  6  2  0
  5  7  1  0
  3  8  1  0
  8  9  2  0
  9 10  1  0
 10 11  1  0
 11 12  2  0
 11 13  1  0
  9 14  1  0
 14 15  2  0
 15 16  1  0
 16 17  2  0
 17 18  1  0
 18 19  2  0
 19 20  1  0
 20 21  2  0
 15  2  1  0
 21 16  1  0
M  END
>  <HIPPO Pose ID>  (37) 
82423

>  <energy_score>  (37) 
-57.201697

>  <csv_name>  (37) 
primer_grip_n_pocket_fstein_bulkdock_input_split1000_batch000.csv

>  <fragmenstein_mode>  (37) 
expansion

>  <exports>  (37) 
['/opt/xchem-fragalysis-2/maxwin/BulkDock/OUTPUTS/primer_grip_n_pocket_fstein_bulkdock_input_split1000_batch000_217912.sdf']

>  <name>  (37) 
KPCMUKYNNKXHMF-UHFFFAOYSA-N

>  <ref_pdb>  (37) 
5f3z-a

>  <scratch_subdir>  (37) 
/opt/xchem-fragalysis-2/maxwin/BulkDock/SCRATCH/217912/C67721-P231

>  <ref_mols>  (37) 
5hmz-a,5f3z-a

>  <original ID>  (37) 
KPCMUKYNNKXHMF-UHFFFAOYSA-N

>  <fragmenstein_runtime>  (37) 
6.21844

>  <alias>  (37) 
None

>  <SLURM_JOB_ID>  (37) 
217912

>  <original SMILES>  (37) 
Nc1c(CC(=O)O)cc(CC(=O)O)cc1-c1ccccc1

>  <tags>  (37) 
['Fragmenstein placed']

>  <inchikey>  (37) 
KPCMUKYNNKXHMF-UHFFFAOYSA-N

>  <SLURM_JOB_NAME>  (37) 
BulkDock.place:Flavi_NS5_RdRp:primer_grip_n_pocket_fstein_bulkdock_input_split1000_batch000

>  <fragmenstein_outcome>  (37) 
acceptable

>  <distance_score>  (37) 
0.807199

>  <HIPPO Compound ID>  (37) 
67721

>  <fragmenstein_error>  (37) 
None

$$$$
82451
     RDKit          3D

 22 23  0  0  0  0  0  0  0  0999 V2000
  -14.6973  -43.8095  -23.1866 C   0  0  0  0  0  0  0  0  0  0  0  0
  -15.4391  -42.9965  -22.2898 O   0  0  0  0  0  0  0  0  0  0  0  0
  -15.4263  -43.4561  -20.9909 C   0  0  0  0  0  0  0  0  0  0  0  0
  -14.5408  -42.7901  -20.1120 C   0  0  0  0  0  0  0  0  0  0  0  0
  -13.5245  -41.7849  -20.6121 C   0  0  0  0  0  0  0  0  0  0  0  0
  -14.0562  -40.4157  -20.9286 C   0  0  0  0  0  0  0  0  0  0  0  0
  -15.2040  -40.0062  -20.8653 O   0  0  0  0  0  0  0  0  0  0  0  0
  -13.0763  -39.5754  -21.3384 O   0  0  0  0  0  0  0  0  0  0  0  0
  -14.5860  -43.0753  -18.7383 C   0  0  0  0  0  0  0  0  0  0  0  0
  -15.4983  -43.9981  -18.2270 C   0  0  0  0  0  0  0  0  0  0  0  0
  -15.5305  -44.3261  -16.7537 C   0  0  0  0  0  0  0  0  0  0  0  0
  -16.5668  -43.5937  -15.9315 C   0  0  0  0  0  0  0  0  0  0  0  0
  -17.3766  -42.7471  -16.2783 O   0  0  0  0  0  0  0  0  0  0  0  0
  -16.5014  -43.9988  -14.6427 O   0  0  0  0  0  0  0  0  0  0  0  0
  -16.3720  -44.6402  -19.1151 C   0  0  0  0  0  0  0  0  0  0  0  0
  -16.3616  -44.4106  -20.5125 C   0  0  0  0  0  0  0  0  0  0  0  0
  -17.3125  -45.1826  -21.3619 C   0  0  0  0  0  0  0  0  0  0  0  0
  -17.6536  -46.5148  -21.0433 C   0  0  0  0  0  0  0  0  0  0  0  0
  -18.5110  -47.2757  -21.8441 C   0  0  0  0  0  0  0  0  0  0  0  0
  -19.0531  -46.7259  -22.9910 C   0  0  0  0  0  0  0  0  0  0  0  0
  -18.7310  -45.4229  -23.3299 C   0  0  0  0  0  0  0  0  0  0  0  0
  -17.9046  -44.6507  -22.5115 C   0  0  0  0  0  0  0  0  0  0  0  0
  1  2  1  0
  2  3  1  0
  3  4  2  0
  4  5  1  0
  5  6  1  0
  6  7  2  0
  6  8  1  0
  4  9  1  0
  9 10  2  0
 10 11  1  0
 11 12  1  0
 12 13  2  0
 12 14  1  0
 10 15  1  0
 15 16  2  0
 16 17  1  0
 17 18  2  0
 18 19  1  0
 19 20  2  0
 20 21  1  0
 21 22  2  0
 16  3  1  0
 22 17  1  0
M  END
>  <HIPPO Pose ID>  (38) 
82451

>  <energy_score>  (38) 
-45.541124

>  <csv_name>  (38) 
primer_grip_n_pocket_fstein_bulkdock_input_split1000_batch000.csv

>  <fragmenstein_mode>  (38) 
expansion

>  <exports>  (38) 
['/opt/xchem-fragalysis-2/maxwin/BulkDock/OUTPUTS/primer_grip_n_pocket_fstein_bulkdock_input_split1000_batch000_217912.sdf']

>  <name>  (38) 
ZVBJMEAFPALFBT-UHFFFAOYSA-N

>  <ref_pdb>  (38) 
5f41-a

>  <scratch_subdir>  (38) 
/opt/xchem-fragalysis-2/maxwin/BulkDock/SCRATCH/217912/C67728-P214

>  <ref_mols>  (38) 
5f41-a,5hmw-b

>  <original ID>  (38) 
ZVBJMEAFPALFBT-UHFFFAOYSA-N

>  <fragmenstein_runtime>  (38) 
4.198955

>  <alias>  (38) 
None

>  <SLURM_JOB_ID>  (38) 
217912

>  <original SMILES>  (38) 
COc1c(CC(=O)O)cc(CC(=O)O)cc1-c1ccccc1

>  <tags>  (38) 
['Fragmenstein placed']

>  <inchikey>  (38) 
ZVBJMEAFPALFBT-UHFFFAOYSA-N

>  <SLURM_JOB_NAME>  (38) 
BulkDock.place:Flavi_NS5_RdRp:primer_grip_n_pocket_fstein_bulkdock_input_split1000_batch000

>  <fragmenstein_outcome>  (38) 
acceptable

>  <distance_score>  (38) 
0.938472

>  <HIPPO Compound ID>  (38) 
67728

>  <fragmenstein_error>  (38) 
None

$$$$
82480
     RDKit          3D

 21 22  0  0  0  0  0  0  0  0999 V2000
  -14.9369  -43.8092  -23.0116 C   0  0  0  0  0  0  0  0  0  0  0  0
  -15.5352  -45.0906  -22.7673 O   0  0  0  0  0  0  0  0  0  0  0  0
  -16.0700  -45.1892  -21.5294 C   0  0  0  0  0  0  0  0  0  0  0  0
  -16.9834  -44.2982  -21.1138 C   0  0  0  0  0  0  0  0  0  0  0  0
  -18.2064  -44.0874  -22.0056 C   0  0  0  0  0  0  0  0  0  0  0  0
  -18.5064  -45.1329  -23.0316 C   0  0  0  0  0  0  0  0  0  0  0  0
  -17.7281  -45.7202  -23.7404 O   0  0  0  0  0  0  0  0  0  0  0  0
  -19.7804  -45.4568  -23.2042 O   0  0  0  0  0  0  0  0  0  0  0  0
  -16.8609  -44.0036  -19.7499 C   0  0  0  0  0  0  0  0  0  0  0  0
  -16.1407  -44.8244  -18.8636 C   0  0  0  0  0  0  0  0  0  0  0  0
  -16.2072  -44.6176  -17.3668 C   0  0  0  0  0  0  0  0  0  0  0  0
  -16.2224  -43.1801  -16.9087 C   0  0  0  0  0  0  0  0  0  0  0  0
  -17.2179  -42.4842  -16.7417 O   0  0  0  0  0  0  0  0  0  0  0  0
  -14.9850  -42.6895  -16.7010 O   0  0  0  0  0  0  0  0  0  0  0  0
  -15.7455  -46.0603  -19.3901 C   0  0  0  0  0  0  0  0  0  0  0  0
  -16.0462  -46.3286  -20.7388 C   0  0  0  0  0  0  0  0  0  0  0  0
  -17.2730  -47.1603  -20.9239 C   0  0  0  0  0  0  0  0  0  0  0  0
  -17.7310  -48.0505  -21.8795 C   0  0  0  0  0  0  0  0  0  0  0  0
  -19.1350  -48.0431  -21.9925 C   0  0  0  0  0  0  0  0  0  0  0  0
  -19.6614  -47.1762  -21.0791 C   0  0  0  0  0  0  0  0  0  0  0  0
  -18.5426  -46.8612  -19.8406 S   0  0  0  0  0  0  0  0  0  0  0  0
  1  2  1  0
  2  3  1  0
  3  4  2  0
  4  5  1  0
  5  6  1  0
  6  7  2  0
  6  8  1  0
  4  9  1  0
  9 10  2  0
 10 11  1  0
 11 12  1  0
 12 13  2  0
 12 14  1  0
 10 15  1  0
 15 16  2  0
 16 17  1  0
 17 18  2  0
 18 19  1  0
 19 20  2  0
 20 21  1  0
 16  3  1  0
 21 17  1  0
M  END
>  <HIPPO Pose ID>  (39) 
82480

>  <energy_score>  (39) 
46.41222

>  <csv_name>  (39) 
primer_grip_n_pocket_fstein_bulkdock_input_split1000_batch000.csv

>  <fragmenstein_mode>  (39) 
expansion

>  <exports>  (39) 
['/opt/xchem-fragalysis-2/maxwin/BulkDock/OUTPUTS/primer_grip_n_pocket_fstein_bulkdock_input_split1000_batch000_217912.sdf']

>  <name>  (39) 
AESJIQFVXABWJT-UHFFFAOYSA-N

>  <ref_pdb>  (39) 
6h9r-a

>  <scratch_subdir>  (39) 
/opt/xchem-fragalysis-2/maxwin/BulkDock/SCRATCH/217912/C67661-P232

>  <ref_mols>  (39) 
5hn0-a,5hmy-a,6h9r-a

>  <original ID>  (39) 
AESJIQFVXABWJT-UHFFFAOYSA-N

>  <fragmenstein_runtime>  (39) 
3.242085

>  <alias>  (39) 
None

>  <SLURM_JOB_ID>  (39) 
217912

>  <original SMILES>  (39) 
COc1c(CC(=O)O)cc(CC(=O)O)cc1-c1cccs1

>  <tags>  (39) 
['Fragmenstein placed']

>  <inchikey>  (39) 
AESJIQFVXABWJT-UHFFFAOYSA-N

>  <SLURM_JOB_NAME>  (39) 
BulkDock.place:Flavi_NS5_RdRp:primer_grip_n_pocket_fstein_bulkdock_input_split1000_batch000

>  <fragmenstein_outcome>  (39) 
acceptable

>  <distance_score>  (39) 
1.831235

>  <HIPPO Compound ID>  (39) 
67661

>  <fragmenstein_error>  (39) 
None

$$$$
82481
     RDKit          3D

 21 22  0  0  0  0  0  0  0  0999 V2000
  -14.4453  -43.4776  -23.0185 C   0  0  0  0  0  0  0  0  0  0  0  0
  -15.5688  -43.2896  -22.1789 O   0  0  0  0  0  0  0  0  0  0  0  0
  -15.4795  -43.7285  -20.8844 C   0  0  0  0  0  0  0  0  0  0  0  0
  -14.5995  -43.0981  -19.9709 C   0  0  0  0  0  0  0  0  0  0  0  0
  -13.5649  -42.0620  -20.3574 C   0  0  0  0  0  0  0  0  0  0  0  0
  -14.1092  -40.7180  -20.7528 C   0  0  0  0  0  0  0  0  0  0  0  0
  -15.2671  -40.3342  -20.7606 O   0  0  0  0  0  0  0  0  0  0  0  0
  -13.1323  -39.8595  -21.1265 O   0  0  0  0  0  0  0  0  0  0  0  0
  -14.7039  -43.4057  -18.6011 C   0  0  0  0  0  0  0  0  0  0  0  0
  -15.6440  -44.3210  -18.1264 C   0  0  0  0  0  0  0  0  0  0  0  0
  -15.8121  -44.5684  -16.6451 C   0  0  0  0  0  0  0  0  0  0  0  0
  -16.6692  -43.5136  -15.9792 C   0  0  0  0  0  0  0  0  0  0  0  0
  -16.4054  -42.3188  -15.9686 O   0  0  0  0  0  0  0  0  0  0  0  0
  -17.7978  -43.9811  -15.3991 O   0  0  0  0  0  0  0  0  0  0  0  0
  -16.4874  -44.9491  -19.0470 C   0  0  0  0  0  0  0  0  0  0  0  0
  -16.4378  -44.6767  -20.4313 C   0  0  0  0  0  0  0  0  0  0  0  0
  -17.4053  -45.4195  -21.2889 C   0  0  0  0  0  0  0  0  0  0  0  0
  -17.9867  -46.6602  -21.0477 C   0  0  0  0  0  0  0  0  0  0  0  0
  -18.8716  -47.0904  -22.0786 C   0  0  0  0  0  0  0  0  0  0  0  0
  -18.9726  -46.1572  -23.0785 C   0  0  0  0  0  0  0  0  0  0  0  0
  -18.0421  -44.7753  -22.7427 S   0  0  0  0  0  0  0  0  0  0  0  0
  1  2  1  0
  2  3  1  0
  3  4  2  0
  4  5  1  0
  5  6  1  0
  6  7  2  0
  6  8  1  0
  4  9  1  0
  9 10  2  0
 10 11  1  0
 11 12  1  0
 12 13  2  0
 12 14  1  0
 10 15  1  0
 15 16  2  0
 16 17  1  0
 17 18  2  0
 18 19  1  0
 19 20  2  0
 20 21  1  0
 16  3  1  0
 21 17  1  0
M  END
>  <HIPPO Pose ID>  (40) 
82481

>  <energy_score>  (40) 
-62.583715

>  <csv_name>  (40) 
primer_grip_n_pocket_fstein_bulkdock_input_split1000_batch000.csv

>  <fragmenstein_mode>  (40) 
expansion

>  <exports>  (40) 
['/opt/xchem-fragalysis-2/maxwin/BulkDock/OUTPUTS/primer_grip_n_pocket_fstein_bulkdock_input_split1000_batch000_217912.sdf']

>  <name>  (40) 
AESJIQFVXABWJT-UHFFFAOYSA-N

>  <ref_pdb>  (40) 
5hmy-a

>  <scratch_subdir>  (40) 
/opt/xchem-fragalysis-2/maxwin/BulkDock/SCRATCH/217912/C67661-P216

>  <ref_mols>  (40) 
5hmy-a,6h9r-a

>  <original ID>  (40) 
AESJIQFVXABWJT-UHFFFAOYSA-N

>  <fragmenstein_runtime>  (40) 
3.27256

>  <alias>  (40) 
None

>  <SLURM_JOB_ID>  (40) 
217912

>  <original SMILES>  (40) 
COc1c(CC(=O)O)cc(CC(=O)O)cc1-c1cccs1

>  <tags>  (40) 
['Fragmenstein placed']

>  <inchikey>  (40) 
AESJIQFVXABWJT-UHFFFAOYSA-N

>  <SLURM_JOB_NAME>  (40) 
BulkDock.place:Flavi_NS5_RdRp:primer_grip_n_pocket_fstein_bulkdock_input_split1000_batch000

>  <fragmenstein_outcome>  (40) 
acceptable

>  <distance_score>  (40) 
0.528647

>  <HIPPO Compound ID>  (40) 
67661

>  <fragmenstein_error>  (40) 
None

$$$$
