ver_1.2
     RDKit          3D

 21 23  0  0  0  0  0  0  0  0999 V2000
    0.5849    2.9468   -0.3329 C   0  0  0  0  0  0  0  0  0  0  0  0
    0.0950    1.7325    0.4092 C   0  0  0  0  0  0  0  0  0  0  0  0
    0.0693    1.5047    1.6539 O   0  0  0  0  0  0  0  0  0  0  0  0
   -0.4898    0.4443   -0.0341 C   0  0  0  0  0  0  0  0  0  0  0  0
    0.4386   -0.5875   -0.2646 C   0  0  0  0  0  0  0  0  0  0  0  0
    1.8576   -0.2876   -0.0759 C   0  0  0  0  0  0  0  0  0  0  0  0
    2.4469    0.6038   -0.8066 N   0  0  0  0  0  0  0  0  0  0  0  0
    3.5583    0.9909   -0.7811 C   0  0  0  0  0  0  0  0  0  0  0  0
    4.7618    1.8039   -1.1820 N   0  0  0  0  0  0  0  0  0  0  0  0
    4.2990   -0.0595    0.6526 S   0  0  0  0  0  0  0  0  0  0  0  0
    2.6630   -0.9016    0.9098 C   0  0  0  0  0  0  0  0  0  0  0  0
    2.2827   -1.9288    1.8638 C   0  0  0  0  0  0  0  0  0  0  0  0
   -0.0831   -1.8186   -0.6800 C   0  0  0  0  0  0  0  0  0  0  0  0
   -1.4432   -1.9735   -0.8431 C   0  0  0  0  0  0  0  0  0  0  0  0
   -1.9807   -3.3018   -1.2838 C   0  0  0  0  0  0  0  0  0  0  0  0
   -2.3327   -0.9676   -0.6177 C   0  0  0  0  0  0  0  0  0  0  0  0
   -3.7160   -1.0609   -0.7621 C   0  0  0  0  0  0  0  0  0  0  0  0
   -4.5231    0.0056   -0.5090 C   0  0  0  0  0  0  0  0  0  0  0  0
   -4.0130    1.1967   -0.1121 C   0  0  0  0  0  0  0  0  0  0  0  0
   -2.6352    1.3911    0.0636 C   0  0  0  0  0  0  0  0  0  0  0  0
   -1.8405    0.2671   -0.2057 C   0  0  0  0  0  0  0  0  0  0  0  0
  1  2  1  0
  2  3  2  0
  2  4  1  0
  4  5  2  0
  5  6  1  0
  6  7  1  0
  7  8  2  0
  8  9  1  0
  8 10  1  0
 10 11  1  0
 11 12  1  0
  5 13  1  0
 13 14  2  0
 14 15  1  0
 14 16  1  0
 16 17  2  0
 17 18  1  0
 18 19  2  0
 19 20  1  0
 20 21  2  0
 21  4  1  0
 11  6  2  0
 21 16  1  0
M  END
>  <ref_url>  (1) 
https://github.com/mwinokan/BulkDock

>  <submitter_name>  (1) 
Max Winokan

>  <submitter_email>  (1) 
max.winokan@diamond.ac.uk

>  <submitter_institution>  (1) 
DLS

>  <generation_date>  (1) 
2024-12-04

>  <method>  (1) 
Fstein_Green

>  <SLURM_JOB_ID>  (1) 
SLURM_JOB_ID

>  <SLURM_JOB_NAME>  (1) 
SLURM_JOB_NAME

>  <csv_name>  (1) 
csv_name

>  <scratch_subdir>  (1) 
scratch_subdir

>  <fragmenstein_runtime>  (1) 
fragmenstein_runtime

>  <fragmenstein_outcome>  (1) 
fragmenstein_outcome

>  <fragmenstein_mode>  (1) 
fragmenstein_mode

>  <fragmenstein_error>  (1) 
fragmenstein_error

>  <exports>  (1) 
exports

>  <HIPPO Pose ID>  (1) 
HIPPO Pose ID

>  <HIPPO Compound ID>  (1) 
HIPPO Compound ID

>  <smiles>  (1) 
smiles

>  <ref_pdb>  (1) 
protein reference

>  <ref_mols>  (1) 
fragment inspirations

>  <original ID>  (1) 
original ID

>  <compound inchikey>  (1) 
compound inchikey

$$$$
77399
     RDKit          3D

 21 23  0  0  0  0  0  0  0  0999 V2000
  -26.5206  -32.6830  -19.3624 C   0  0  0  0  0  0  0  0  0  0  0  0
  -26.5825  -31.4811  -20.2620 C   0  0  0  0  0  0  0  0  0  0  0  0
  -26.0944  -31.5774  -21.3859 O   0  0  0  0  0  0  0  0  0  0  0  0
  -27.2704  -30.2151  -19.7876 C   0  0  0  0  0  0  0  0  0  0  0  0
  -27.7656  -29.4624  -20.8472 C   0  0  0  0  0  0  0  0  0  0  0  0
  -26.8600  -28.7791  -21.7466 C   0  0  0  0  0  0  0  0  0  0  0  0
  -26.6943  -29.1969  -23.0442 N   0  0  0  0  0  0  0  0  0  0  0  0
  -25.7755  -28.4723  -23.6267 C   0  0  0  0  0  0  0  0  0  0  0  0
  -25.3818  -28.6905  -24.8869 N   0  0  0  0  0  0  0  0  0  0  0  0
  -25.1313  -27.1848  -22.7063 S   0  0  0  0  0  0  0  0  0  0  0  0
  -26.1245  -27.6586  -21.3850 C   0  0  0  0  0  0  0  0  0  0  0  0
  -26.0676  -26.8911  -20.1162 C   0  0  0  0  0  0  0  0  0  0  0  0
  -29.1384  -29.4260  -21.0114 C   0  0  0  0  0  0  0  0  0  0  0  0
  -29.9639  -29.9096  -19.9856 C   0  0  0  0  0  0  0  0  0  0  0  0
  -31.4137  -30.1402  -20.2891 C   0  0  0  0  0  0  0  0  0  0  0  0
  -29.4061  -30.1795  -18.7046 C   0  0  0  0  0  0  0  0  0  0  0  0
  -30.1574  -30.3384  -17.5212 C   0  0  0  0  0  0  0  0  0  0  0  0
  -29.5590  -30.5656  -16.2783 C   0  0  0  0  0  0  0  0  0  0  0  0
  -28.1792  -30.6355  -16.1795 C   0  0  0  0  0  0  0  0  0  0  0  0
  -27.4100  -30.5069  -17.3326 C   0  0  0  0  0  0  0  0  0  0  0  0
  -28.0116  -30.2985  -18.5990 C   0  0  0  0  0  0  0  0  0  0  0  0
  1  2  1  0
  2  3  2  0
  2  4  1  0
  4  5  2  0
  5  6  1  0
  6  7  1  0
  7  8  2  0
  8  9  1  0
  8 10  1  0
 10 11  1  0
 11 12  1  0
  5 13  1  0
 13 14  2  0
 14 15  1  0
 14 16  1  0
 16 17  2  0
 17 18  1  0
 18 19  2  0
 19 20  1  0
 20 21  2  0
 21  4  1  0
 11  6  2  0
 21 16  1  0
M  END
>  <inchikey>  (1) 
IDRMTSOQUIIOGU-UHFFFAOYSA-N

>  <fragmenstein_mode>  (1) 
expansion

>  <exports>  (1) 
['/opt/xchem-fragalysis-2/maxwin/BulkDock/OUTPUTS/green_site_rna_tunnel_fstein_bulkdock_input_split1000_batch001_217910.sdf']

>  <name>  (1) 
IDRMTSOQUIIOGU-UHFFFAOYSA-N

>  <ref_pdb>  (1) 
z0496a

>  <alias>  (1) 
None

>  <energy_score>  (1) 
-67.778868

>  <SLURM_JOB_NAME>  (1) 
BulkDock.place:Flavi_NS5_RdRp:green_site_rna_tunnel_fstein_bulkdock_input_split1000_batch001

>  <tags>  (1) 
['Fragmenstein placed']

>  <fragmenstein_error>  (1) 
None

>  <original SMILES>  (1) 
CC(=O)c1c(-c2nc(N)sc2C)cc(C)c2ccccc12

>  <csv_name>  (1) 
green_site_rna_tunnel_fstein_bulkdock_input_split1000_batch001.csv

>  <ref_mols>  (1) 
z0496a,z0581a

>  <distance_score>  (1) 
0.883168

>  <SLURM_JOB_ID>  (1) 
217910

>  <original ID>  (1) 
IDRMTSOQUIIOGU-UHFFFAOYSA-N

>  <HIPPO Pose ID>  (1) 
77399

>  <scratch_subdir>  (1) 
/opt/xchem-fragalysis-2/maxwin/BulkDock/SCRATCH/217910/C67755-P136

>  <fragmenstein_runtime>  (1) 
2.680698

>  <HIPPO Compound ID>  (1) 
67755

>  <fragmenstein_outcome>  (1) 
acceptable

$$$$
77401
     RDKit          3D

 21 23  0  0  0  0  0  0  0  0999 V2000
  -25.8225  -31.8827  -20.5574 C   0  0  0  0  0  0  0  0  0  0  0  0
  -25.9313  -30.8116  -19.5005 C   0  0  0  0  0  0  0  0  0  0  0  0
  -25.0346  -30.6348  -18.6855 O   0  0  0  0  0  0  0  0  0  0  0  0
  -27.2237  -30.0910  -19.4135 C   0  0  0  0  0  0  0  0  0  0  0  0
  -27.7465  -29.5542  -20.5921 C   0  0  0  0  0  0  0  0  0  0  0  0
  -26.8954  -29.0438  -21.6415 C   0  0  0  0  0  0  0  0  0  0  0  0
  -26.8899  -29.6383  -22.8863 N   0  0  0  0  0  0  0  0  0  0  0  0
  -26.0948  -28.9763  -23.6853 C   0  0  0  0  0  0  0  0  0  0  0  0
  -25.9405  -29.2497  -24.9844 N   0  0  0  0  0  0  0  0  0  0  0  0
  -25.3068  -27.6459  -22.9889 S   0  0  0  0  0  0  0  0  0  0  0  0
  -26.1116  -27.9112  -21.5097 C   0  0  0  0  0  0  0  0  0  0  0  0
  -25.9026  -26.9588  -20.3857 C   0  0  0  0  0  0  0  0  0  0  0  0
  -29.1222  -29.5269  -20.7622 C   0  0  0  0  0  0  0  0  0  0  0  0
  -29.9607  -29.9198  -19.7142 C   0  0  0  0  0  0  0  0  0  0  0  0
  -31.4140  -30.1369  -20.0261 C   0  0  0  0  0  0  0  0  0  0  0  0
  -29.4212  -30.1616  -18.4189 C   0  0  0  0  0  0  0  0  0  0  0  0
  -30.2213  -30.3228  -17.2677 C   0  0  0  0  0  0  0  0  0  0  0  0
  -29.6853  -30.5896  -16.0068 C   0  0  0  0  0  0  0  0  0  0  0  0
  -28.3165  -30.7028  -15.8579 C   0  0  0  0  0  0  0  0  0  0  0  0
  -27.4973  -30.5493  -16.9733 C   0  0  0  0  0  0  0  0  0  0  0  0
  -28.0231  -30.2650  -18.2618 C   0  0  0  0  0  0  0  0  0  0  0  0
  1  2  1  0
  2  3  2  0
  2  4  1  0
  4  5  2  0
  5  6  1  0
  6  7  1  0
  7  8  2  0
  8  9  1  0
  8 10  1  0
 10 11  1  0
 11 12  1  0
  5 13  1  0
 13 14  2  0
 14 15  1  0
 14 16  1  0
 16 17  2  0
 17 18  1  0
 18 19  2  0
 19 20  1  0
 20 21  2  0
 21  4  1  0
 11  6  2  0
 21 16  1  0
M  END
>  <inchikey>  (2) 
IDRMTSOQUIIOGU-UHFFFAOYSA-N

>  <fragmenstein_mode>  (2) 
expansion

>  <exports>  (2) 
['/opt/xchem-fragalysis-2/maxwin/BulkDock/OUTPUTS/green_site_rna_tunnel_fstein_bulkdock_input_split1000_batch001_217910.sdf']

>  <name>  (2) 
IDRMTSOQUIIOGU-UHFFFAOYSA-N

>  <ref_pdb>  (2) 
z0581a

>  <alias>  (2) 
None

>  <energy_score>  (2) 
-98.628385

>  <SLURM_JOB_NAME>  (2) 
BulkDock.place:Flavi_NS5_RdRp:green_site_rna_tunnel_fstein_bulkdock_input_split1000_batch001

>  <tags>  (2) 
['Fragmenstein placed']

>  <fragmenstein_error>  (2) 
None

>  <original SMILES>  (2) 
CC(=O)c1c(-c2nc(N)sc2C)cc(C)c2ccccc12

>  <csv_name>  (2) 
green_site_rna_tunnel_fstein_bulkdock_input_split1000_batch001.csv

>  <ref_mols>  (2) 
z0496a,z0581a

>  <distance_score>  (2) 
0.605911

>  <SLURM_JOB_ID>  (2) 
217910

>  <original ID>  (2) 
IDRMTSOQUIIOGU-UHFFFAOYSA-N

>  <HIPPO Pose ID>  (2) 
77401

>  <scratch_subdir>  (2) 
/opt/xchem-fragalysis-2/maxwin/BulkDock/SCRATCH/217910/C67755-P144

>  <fragmenstein_runtime>  (2) 
4.777473

>  <HIPPO Compound ID>  (2) 
67755

>  <fragmenstein_outcome>  (2) 
acceptable

$$$$
77403
     RDKit          3D

 23 24  0  0  0  0  0  0  0  0999 V2000
  -28.7541  -30.2368  -14.2553 C   0  0  0  0  0  0  0  0  0  0  0  0
  -28.8046  -30.4585  -15.7347 C   0  0  0  0  0  0  0  0  0  0  0  0
  -27.4790  -30.1690  -16.4178 C   0  0  1  0  0  0  0  0  0  0  0  0
  -26.4606  -30.4954  -15.5655 F   0  0  0  0  0  0  0  0  0  0  0  0
  -27.3068  -31.0280  -17.6604 C   0  0  0  0  0  0  0  0  0  0  0  0
  -28.0938  -30.5871  -18.8675 C   0  0  0  0  0  0  0  0  0  0  0  0
  -27.3671  -29.9526  -19.8686 C   0  0  0  0  0  0  0  0  0  0  0  0
  -27.9227  -29.5852  -21.0893 C   0  0  0  0  0  0  0  0  0  0  0  0
  -27.0453  -29.1324  -22.1373 C   0  0  0  0  0  0  0  0  0  0  0  0
  -27.1508  -29.5638  -23.4395 N   0  0  0  0  0  0  0  0  0  0  0  0
  -26.2232  -28.9710  -24.1398 C   0  0  0  0  0  0  0  0  0  0  0  0
  -26.2250  -28.7405  -25.4437 N   0  0  0  0  0  0  0  0  0  0  0  0
  -24.9784  -28.3234  -23.2388 S   0  0  0  0  0  0  0  0  0  0  0  0
  -26.0713  -28.1762  -21.9348 C   0  0  0  0  0  0  0  0  0  0  0  0
  -25.9269  -27.2566  -20.7983 C   0  0  0  0  0  0  0  0  0  0  0  0
  -24.9034  -25.8344  -20.9775 S   0  0  0  0  0  0  0  0  0  0  0  0
  -24.7776  -25.4816  -22.7296 C   0  0  0  0  0  0  0  0  0  0  0  0
  -23.5781  -26.1273  -20.3432 O   0  0  0  0  0  0  0  0  0  0  0  0
  -29.2821  -29.7108  -21.2718 C   0  0  0  0  0  0  0  0  0  0  0  0
  -30.0592  -30.2853  -20.2618 C   0  0  0  0  0  0  0  0  0  0  0  0
  -31.5419  -30.3115  -20.4451 C   0  0  0  0  0  0  0  0  0  0  0  0
  -29.4550  -30.8266  -19.1019 C   0  0  0  0  0  0  0  0  0  0  0  0
  -30.2866  -31.6802  -18.1866 C   0  0  0  0  0  0  0  0  0  0  0  0
  1  2  1  0
  2  3  1  0
  3  4  1  1
  3  5  1  0
  5  6  1  0
  6  7  2  0
  7  8  1  0
  8  9  1  0
  9 10  1  0
 10 11  2  0
 11 12  1  0
 11 13  1  0
 13 14  1  0
 14 15  1  0
 15 16  1  0
 16 17  1  6
 16 18  2  0
  8 19  2  0
 19 20  1  0
 20 21  1  0
 20 22  2  0
 22 23  1  0
 22  6  1  0
 14  9  2  0
M  END
>  <inchikey>  (3) 
FXXCNRCGDRXCOE-FATZIPQQSA-N

>  <fragmenstein_mode>  (3) 
expansion

>  <exports>  (3) 
['/opt/xchem-fragalysis-2/maxwin/BulkDock/OUTPUTS/green_site_rna_tunnel_fstein_bulkdock_input_split1000_batch001_217910.sdf']

>  <name>  (3) 
FXXCNRCGDRXCOE-FATZIPQQSA-N

>  <ref_pdb>  (3) 
z0496a

>  <alias>  (3) 
None

>  <energy_score>  (3) 
-58.690929

>  <SLURM_JOB_NAME>  (3) 
BulkDock.place:Flavi_NS5_RdRp:green_site_rna_tunnel_fstein_bulkdock_input_split1000_batch001

>  <tags>  (3) 
['Fragmenstein placed']

>  <fragmenstein_error>  (3) 
None

>  <original SMILES>  (3) 
CC[C@@H](F)Cc1cc(-c2nc(N)sc2C[S@](C)=O)cc(C)c1C

>  <csv_name>  (3) 
green_site_rna_tunnel_fstein_bulkdock_input_split1000_batch001.csv

>  <ref_mols>  (3) 
z0496a,z0625a

>  <distance_score>  (3) 
0.969075

>  <SLURM_JOB_ID>  (3) 
217910

>  <original ID>  (3) 
FXXCNRCGDRXCOE-FATZIPQQSA-N

>  <HIPPO Pose ID>  (3) 
77403

>  <scratch_subdir>  (3) 
/opt/xchem-fragalysis-2/maxwin/BulkDock/SCRATCH/217910/C67756-P136

>  <fragmenstein_runtime>  (3) 
8.514861

>  <HIPPO Compound ID>  (3) 
67756

>  <fragmenstein_outcome>  (3) 
acceptable

$$$$
77424
     RDKit          3D

 22 24  0  0  0  0  0  0  0  0999 V2000
  -26.8392  -33.5940  -21.3084 C   0  0  0  0  0  0  0  0  0  0  0  0
  -26.0923  -32.2688  -21.3470 C   0  0  0  0  0  0  0  0  0  0  0  0
  -26.3276  -31.4698  -20.1907 O   0  0  0  0  0  0  0  0  0  0  0  0
  -27.5906  -30.8476  -20.0902 C   0  0  2  0  0  0  0  0  0  0  0  0
  -27.6726  -29.3669  -20.5105 C   0  0  1  0  0  0  0  0  0  0  0  0
  -26.7696  -28.8249  -21.5772 C   0  0  0  0  0  0  0  0  0  0  0  0
  -26.7518  -29.4242  -22.8194 N   0  0  0  0  0  0  0  0  0  0  0  0
  -25.9547  -28.7756  -23.6302 C   0  0  0  0  0  0  0  0  0  0  0  0
  -25.8227  -29.0780  -24.9219 N   0  0  0  0  0  0  0  0  0  0  0  0
  -25.1693  -27.4065  -22.9690 S   0  0  0  0  0  0  0  0  0  0  0  0
  -26.0088  -27.6624  -21.4943 C   0  0  0  0  0  0  0  0  0  0  0  0
  -25.8376  -26.6986  -20.3769 C   0  0  0  0  0  0  0  0  0  0  0  0
  -29.1522  -29.1155  -20.8422 C   0  0  0  0  0  0  0  0  0  0  0  0
  -30.1151  -29.8332  -19.8604 C   0  0  1  0  0  0  0  0  0  0  0  0
  -30.8040  -31.0271  -20.4908 C   0  0  0  0  0  0  0  0  0  0  0  0
  -29.4538  -30.0928  -18.4854 C   0  0  1  0  0  0  0  0  0  0  0  0
  -30.4775  -30.5746  -17.4609 C   0  0  0  0  0  0  0  0  0  0  0  0
  -28.1169  -30.9231  -18.6055 C   0  0  0  0  0  0  0  0  0  0  0  0
  -28.1972  -32.3647  -18.0939 C   0  0  0  0  0  0  0  0  0  0  0  0
  -28.0100  -32.3074  -16.6316 N   0  0  0  0  0  0  0  0  0  0  0  0
  -27.4818  -30.9889  -16.2969 N   0  0  0  0  0  0  0  0  0  0  0  0
  -27.1012  -30.3826  -17.5769 C   0  0  0  0  0  0  0  0  0  0  0  0
  1  2  1  0
  2  3  1  0
  4  3  1  1
  4  5  1  0
  5  6  1  6
  6  7  1  0
  7  8  2  0
  8  9  1  0
  8 10  1  0
 10 11  1  0
 11 12  1  0
  5 13  1  0
 13 14  1  0
 14 15  1  6
 14 16  1  0
 16 17  1  1
 16 18  1  0
 18 19  1  0
 19 20  1  0
 20 21  1  0
 21 22  1  0
 18  4  1  0
 11  6  2  0
 22 18  1  0
M  END
>  <inchikey>  (4) 
DSKBBCKDNLGDGY-BGOOENEXSA-N

>  <fragmenstein_mode>  (4) 
expansion

>  <exports>  (4) 
['/opt/xchem-fragalysis-2/maxwin/BulkDock/OUTPUTS/green_site_rna_tunnel_fstein_bulkdock_input_split1000_batch001_217910.sdf']

>  <name>  (4) 
DSKBBCKDNLGDGY-BGOOENEXSA-N

>  <ref_pdb>  (4) 
z0496a

>  <alias>  (4) 
None

>  <energy_score>  (4) 
-119.916936

>  <SLURM_JOB_NAME>  (4) 
BulkDock.place:Flavi_NS5_RdRp:green_site_rna_tunnel_fstein_bulkdock_input_split1000_batch001

>  <tags>  (4) 
['Fragmenstein placed']

>  <fragmenstein_error>  (4) 
None

>  <original SMILES>  (4) 
CCO[C@@H]1[C@@H](c2nc(N)sc2C)C[C@@H](C)[C@@H](C)C12CNNC2

>  <csv_name>  (4) 
green_site_rna_tunnel_fstein_bulkdock_input_split1000_batch001.csv

>  <ref_mols>  (4) 
z0496a,z0628a

>  <distance_score>  (4) 
0.907473

>  <SLURM_JOB_ID>  (4) 
217910

>  <original ID>  (4) 
DSKBBCKDNLGDGY-BGOOENEXSA-N

>  <HIPPO Pose ID>  (4) 
77424

>  <scratch_subdir>  (4) 
/opt/xchem-fragalysis-2/maxwin/BulkDock/SCRATCH/217910/C67757-P136

>  <fragmenstein_runtime>  (4) 
40.907284

>  <HIPPO Compound ID>  (4) 
67757

>  <fragmenstein_outcome>  (4) 
acceptable

$$$$
77452
     RDKit          3D

 21 23  0  0  0  0  0  0  0  0999 V2000
  -27.9536  -33.1847  -15.3879 C   0  0  0  0  0  0  0  0  0  0  0  0
  -28.4941  -32.0137  -16.1748 C   0  0  0  0  0  0  0  0  0  0  0  0
  -29.6089  -32.0647  -16.9466 C   0  0  0  0  0  0  0  0  0  0  0  0
  -30.3703  -33.2090  -17.0194 N   0  0  0  0  0  0  0  0  0  0  0  0
  -30.0740  -30.9971  -17.7061 N   0  0  0  0  0  0  0  0  0  0  0  0
  -29.2393  -30.3029  -18.6349 C   0  0  0  0  0  0  0  0  0  0  0  0
  -29.7142  -30.0559  -19.9486 C   0  0  0  0  0  0  0  0  0  0  0  0
  -31.1072  -30.4137  -20.3869 C   0  0  0  0  0  0  0  0  0  0  0  0
  -28.8612  -29.4804  -20.9002 C   0  0  0  0  0  0  0  0  0  0  0  0
  -27.5712  -29.0773  -20.5580 C   0  0  0  0  0  0  0  0  0  0  0  0
  -26.6927  -28.5803  -21.5992 C   0  0  0  0  0  0  0  0  0  0  0  0
  -26.6583  -29.2417  -22.8115 N   0  0  0  0  0  0  0  0  0  0  0  0
  -25.8542  -28.6292  -23.6374 C   0  0  0  0  0  0  0  0  0  0  0  0
  -25.7363  -28.9761  -24.9191 N   0  0  0  0  0  0  0  0  0  0  0  0
  -25.0528  -27.2532  -23.0116 S   0  0  0  0  0  0  0  0  0  0  0  0
  -25.8957  -27.4515  -21.5234 C   0  0  0  0  0  0  0  0  0  0  0  0
  -25.6868  -26.4663  -20.4380 C   0  0  0  0  0  0  0  0  0  0  0  0
  -27.1449  -29.2171  -19.2392 C   0  0  0  0  0  0  0  0  0  0  0  0
  -27.9602  -29.8294  -18.2753 C   0  0  0  0  0  0  0  0  0  0  0  0
  -27.4344  -29.8715  -16.9055 C   0  0  0  0  0  0  0  0  0  0  0  0
  -27.6947  -30.8115  -15.9888 C   0  0  0  0  0  0  0  0  0  0  0  0
  1  2  1  0
  2  3  2  0
  3  4  1  0
  3  5  1  0
  5  6  1  0
  6  7  2  0
  7  8  1  0
  7  9  1  0
  9 10  2  0
 10 11  1  0
 11 12  1  0
 12 13  2  0
 13 14  1  0
 13 15  1  0
 15 16  1  0
 16 17  1  0
 10 18  1  0
 18 19  2  0
 19 20  1  0
 20 21  2  0
 21  2  1  0
 19  6  1  0
 16 11  2  0
M  END
>  <inchikey>  (5) 
PSPSYXFYWHLDPP-UHFFFAOYSA-N

>  <fragmenstein_mode>  (5) 
expansion

>  <exports>  (5) 
['/opt/xchem-fragalysis-2/maxwin/BulkDock/OUTPUTS/green_site_rna_tunnel_fstein_bulkdock_input_split1000_batch001_217910.sdf']

>  <name>  (5) 
PSPSYXFYWHLDPP-UHFFFAOYSA-N

>  <ref_pdb>  (5) 
z0496a

>  <alias>  (5) 
None

>  <energy_score>  (5) 
-103.122294

>  <SLURM_JOB_NAME>  (5) 
BulkDock.place:Flavi_NS5_RdRp:green_site_rna_tunnel_fstein_bulkdock_input_split1000_batch001

>  <tags>  (5) 
['Fragmenstein placed']

>  <fragmenstein_error>  (5) 
None

>  <original SMILES>  (5) 
CC1=C(N)Nc2c(C)cc(-c3nc(N)sc3C)cc2C=C1

>  <csv_name>  (5) 
green_site_rna_tunnel_fstein_bulkdock_input_split1000_batch001.csv

>  <ref_mols>  (5) 
z0496a,z0764a

>  <distance_score>  (5) 
0.568318

>  <SLURM_JOB_ID>  (5) 
217910

>  <original ID>  (5) 
PSPSYXFYWHLDPP-UHFFFAOYSA-N

>  <HIPPO Pose ID>  (5) 
77452

>  <scratch_subdir>  (5) 
/opt/xchem-fragalysis-2/maxwin/BulkDock/SCRATCH/217910/C67760-P136

>  <fragmenstein_runtime>  (5) 
3.042092

>  <HIPPO Compound ID>  (5) 
67760

>  <fragmenstein_outcome>  (5) 
acceptable

$$$$
77654
     RDKit          3D

 21 22  0  0  0  0  0  0  0  0999 V2000
  -22.9275  -32.0048  -20.8854 C   0  0  0  0  0  0  0  0  0  0  0  0
  -23.5455  -32.3718  -22.2218 C   0  0  0  0  0  0  0  0  0  0  0  0
  -24.9130  -31.7267  -22.5283 C   0  0  1  0  0  0  0  0  0  0  0  0
  -25.9946  -32.0140  -21.4498 C   0  0  0  0  0  0  0  0  0  0  0  0
  -27.0846  -30.9567  -21.2455 C   0  0  0  0  0  0  0  0  0  0  0  0
  -27.6969  -30.4656  -22.1915 O   0  0  0  0  0  0  0  0  0  0  0  0
  -27.5863  -30.6537  -19.8661 C   0  0  0  0  0  0  0  0  0  0  0  0
  -28.9826  -30.5944  -19.7308 C   0  0  0  0  0  0  0  0  0  0  0  0
  -29.5725  -30.4035  -18.4805 C   0  0  0  0  0  0  0  0  0  0  0  0
  -28.7846  -30.2725  -17.3431 C   0  0  0  0  0  0  0  0  0  0  0  0
  -29.4640  -30.1595  -16.1638 O   0  0  0  0  0  0  0  0  0  0  0  0
  -28.7103  -30.4396  -14.9924 C   0  0  0  0  0  0  0  0  0  0  0  0
  -27.3984  -30.2554  -17.4771 C   0  0  0  0  0  0  0  0  0  0  0  0
  -26.7839  -30.4351  -18.7322 C   0  0  0  0  0  0  0  0  0  0  0  0
  -25.2893  -30.3904  -18.7525 C   0  0  0  0  0  0  0  0  0  0  0  0
  -24.8202  -30.3293  -22.8731 N   0  0  0  0  0  0  0  0  0  0  0  0
  -25.5038  -30.0650  -24.0614 C   0  0  0  0  0  0  0  0  0  0  0  0
  -25.8312  -28.9716  -24.4947 O   0  0  0  0  0  0  0  0  0  0  0  0
  -25.7000  -31.2385  -24.6883 N   0  0  0  0  0  0  0  0  0  0  0  0
  -25.3550  -32.2736  -23.8843 C   0  0  0  0  0  0  0  0  0  0  0  0
  -25.4331  -33.4630  -24.1699 O   0  0  0  0  0  0  0  0  0  0  0  0
  1  2  1  0
  3  2  1  1
  3  4  1  0
  4  5  1  0
  5  6  2  0
  5  7  1  0
  7  8  2  0
  8  9  1  0
  9 10  2  0
 10 11  1  0
 11 12  1  0
 10 13  1  0
 13 14  2  0
 14 15  1  0
  3 16  1  0
 16 17  1  0
 17 18  2  0
 17 19  1  0
 19 20  1  0
 20 21  2  0
 20  3  1  0
 14  7  1  0
M  END
>  <inchikey>  (6) 
XVLUSRLOJPGVGX-HNNXBMFYSA-N

>  <fragmenstein_mode>  (6) 
expansion

>  <exports>  (6) 
['/opt/xchem-fragalysis-2/maxwin/BulkDock/OUTPUTS/green_site_rna_tunnel_fstein_bulkdock_input_split1000_batch001_217910.sdf']

>  <name>  (6) 
XVLUSRLOJPGVGX-HNNXBMFYSA-N

>  <ref_pdb>  (6) 
z0384a

>  <alias>  (6) 
None

>  <energy_score>  (6) 
-34.274168

>  <SLURM_JOB_NAME>  (6) 
BulkDock.place:Flavi_NS5_RdRp:green_site_rna_tunnel_fstein_bulkdock_input_split1000_batch001

>  <tags>  (6) 
['Fragmenstein placed']

>  <fragmenstein_error>  (6) 
None

>  <original SMILES>  (6) 
CC[C@@]1(CC(=O)c2ccc(OC)cc2C)NC(=O)NC1=O

>  <csv_name>  (6) 
green_site_rna_tunnel_fstein_bulkdock_input_split1000_batch001.csv

>  <ref_mols>  (6) 
z0384a,z0519a

>  <distance_score>  (6) 
0.914915

>  <SLURM_JOB_ID>  (6) 
217910

>  <original ID>  (6) 
XVLUSRLOJPGVGX-HNNXBMFYSA-N

>  <HIPPO Pose ID>  (6) 
77654

>  <scratch_subdir>  (6) 
/opt/xchem-fragalysis-2/maxwin/BulkDock/SCRATCH/217910/C67791-P120

>  <fragmenstein_runtime>  (6) 
13.399826

>  <HIPPO Compound ID>  (6) 
67791

>  <fragmenstein_outcome>  (6) 
acceptable

$$$$
77659
     RDKit          3D

 21 22  0  0  0  0  0  0  0  0999 V2000
  -23.3047  -32.0159  -21.4118 C   0  0  0  0  0  0  0  0  0  0  0  0
  -24.1686  -32.1641  -22.6568 C   0  0  0  0  0  0  0  0  0  0  0  0
  -25.4194  -31.2658  -22.6599 C   0  0  1  0  0  0  0  0  0  0  0  0
  -26.2907  -31.4491  -21.4053 C   0  0  0  0  0  0  0  0  0  0  0  0
  -27.4175  -30.4403  -21.2108 C   0  0  0  0  0  0  0  0  0  0  0  0
  -28.0108  -29.8729  -22.1200 O   0  0  0  0  0  0  0  0  0  0  0  0
  -27.8906  -30.2327  -19.8210 C   0  0  0  0  0  0  0  0  0  0  0  0
  -29.2042  -30.5836  -19.5124 C   0  0  0  0  0  0  0  0  0  0  0  0
  -29.6513  -30.4923  -18.1958 C   0  0  0  0  0  0  0  0  0  0  0  0
  -28.7965  -30.0709  -17.1830 C   0  0  0  0  0  0  0  0  0  0  0  0
  -29.3142  -30.0801  -15.9189 O   0  0  0  0  0  0  0  0  0  0  0  0
  -28.3654  -30.4180  -14.9146 C   0  0  0  0  0  0  0  0  0  0  0  0
  -27.5111  -29.6471  -17.5044 C   0  0  0  0  0  0  0  0  0  0  0  0
  -27.0552  -29.7045  -18.8294 C   0  0  0  0  0  0  0  0  0  0  0  0
  -25.6930  -29.1795  -19.1359 C   0  0  0  0  0  0  0  0  0  0  0  0
  -25.0855  -29.8831  -22.9500 N   0  0  0  0  0  0  0  0  0  0  0  0
  -25.7322  -29.4494  -24.0921 C   0  0  0  0  0  0  0  0  0  0  0  0
  -25.6502  -28.3417  -24.5910 O   0  0  0  0  0  0  0  0  0  0  0  0
  -26.4556  -30.4630  -24.6038 N   0  0  0  0  0  0  0  0  0  0  0  0
  -26.2557  -31.6006  -23.8971 C   0  0  0  0  0  0  0  0  0  0  0  0
  -26.6656  -32.7112  -24.1989 O   0  0  0  0  0  0  0  0  0  0  0  0
  1  2  1  0
  3  2  1  1
  3  4  1  0
  4  5  1  0
  5  6  2  0
  5  7  1  0
  7  8  2  0
  8  9  1  0
  9 10  2  0
 10 11  1  0
 11 12  1  0
 10 13  1  0
 13 14  2  0
 14 15  1  0
  3 16  1  0
 16 17  1  0
 17 18  2  0
 17 19  1  0
 19 20  1  0
 20 21  2  0
 20  3  1  0
 14  7  1  0
M  END
>  <inchikey>  (7) 
XVLUSRLOJPGVGX-HNNXBMFYSA-N

>  <fragmenstein_mode>  (7) 
expansion

>  <exports>  (7) 
['/opt/xchem-fragalysis-2/maxwin/BulkDock/OUTPUTS/green_site_rna_tunnel_fstein_bulkdock_input_split1000_batch001_217910.sdf']

>  <name>  (7) 
XVLUSRLOJPGVGX-HNNXBMFYSA-N

>  <ref_pdb>  (7) 
z0519a

>  <alias>  (7) 
None

>  <energy_score>  (7) 
-46.070483

>  <SLURM_JOB_NAME>  (7) 
BulkDock.place:Flavi_NS5_RdRp:green_site_rna_tunnel_fstein_bulkdock_input_split1000_batch001

>  <tags>  (7) 
['Fragmenstein placed']

>  <fragmenstein_error>  (7) 
None

>  <original SMILES>  (7) 
CC[C@@]1(CC(=O)c2ccc(OC)cc2C)NC(=O)NC1=O

>  <csv_name>  (7) 
green_site_rna_tunnel_fstein_bulkdock_input_split1000_batch001.csv

>  <ref_mols>  (7) 
z0384a,z0519a

>  <distance_score>  (7) 
0.531524

>  <SLURM_JOB_ID>  (7) 
217910

>  <original ID>  (7) 
XVLUSRLOJPGVGX-HNNXBMFYSA-N

>  <HIPPO Pose ID>  (7) 
77659

>  <scratch_subdir>  (7) 
/opt/xchem-fragalysis-2/maxwin/BulkDock/SCRATCH/217910/C67791-P140

>  <fragmenstein_runtime>  (7) 
13.343768

>  <HIPPO Compound ID>  (7) 
67791

>  <fragmenstein_outcome>  (7) 
acceptable

$$$$
78215
     RDKit          3D

 33 36  0  0  0  0  0  0  0  0999 V2000
  -24.3294  -29.4386  -16.6143 C   0  0  0  0  0  0  0  0  0  0  0  0
  -25.6082  -30.1652  -16.2822 C   0  0  0  0  0  0  0  0  0  0  0  0
  -26.4300  -30.4453  -17.4742 N   0  0  0  0  0  0  0  0  0  0  0  0
  -27.8443  -29.9422  -17.3636 C   0  0  0  0  0  0  0  0  0  0  0  0
  -28.4942  -29.9793  -15.9877 C   0  0  0  0  0  0  0  0  0  0  0  0
  -25.8979  -30.9619  -18.7364 C   0  0  0  0  0  0  0  0  0  0  0  0
  -24.7702  -31.7323  -19.0008 C   0  0  0  0  0  0  0  0  0  0  0  0
  -23.7770  -32.4829  -17.7045 S   0  0  0  0  0  0  0  0  0  0  0  0
  -22.6212  -31.6572  -17.4366 O   0  0  0  0  0  0  0  0  0  0  0  0
  -24.6432  -32.8285  -16.6094 O   0  0  0  0  0  0  0  0  0  0  0  0
  -23.1356  -33.9845  -18.2108 N   0  0  0  0  0  0  0  0  0  0  0  0
  -22.2106  -34.7025  -17.3391 C   0  0  0  0  0  0  0  0  0  0  0  0
  -21.5715  -34.1673  -16.2151 C   0  0  0  0  0  0  0  0  0  0  0  0
  -20.6628  -34.9162  -15.4462 C   0  0  0  0  0  0  0  0  0  0  0  0
  -20.4431  -36.2313  -15.8395 C   0  0  0  0  0  0  0  0  0  0  0  0
  -19.5930  -37.1107  -15.2442 O   0  0  0  0  0  0  0  0  0  0  0  0
  -19.6741  -38.2796  -15.9432 C   0  0  0  0  0  0  0  0  0  0  0  0
  -18.7883  -39.3735  -15.4906 C   0  0  0  0  0  0  0  0  0  0  0  0
  -20.6212  -38.1803  -16.9494 C   0  0  0  0  0  0  0  0  0  0  0  0
  -21.0035  -39.2554  -17.8391 C   0  0  0  0  0  0  0  0  0  0  0  0
  -20.2039  -40.0606  -18.2982 O   0  0  0  0  0  0  0  0  0  0  0  0
  -22.3277  -39.3228  -18.1262 O   0  0  0  0  0  0  0  0  0  0  0  0
  -21.0608  -36.8231  -16.9297 C   0  0  0  0  0  0  0  0  0  0  0  0
  -21.8957  -36.0184  -17.7271 C   0  0  0  0  0  0  0  0  0  0  0  0
  -24.3269  -31.9417  -20.4142 C   0  0  0  0  0  0  0  0  0  0  0  0
  -22.9037  -32.3782  -20.6805 C   0  0  0  0  0  0  0  0  0  0  0  0
  -25.1434  -31.6423  -21.4435 C   0  0  0  0  0  0  0  0  0  0  0  0
  -24.6858  -31.8362  -23.1018 Cl  0  0  0  0  0  0  0  0  0  0  0  0
  -26.3983  -31.0457  -21.2134 C   0  0  0  0  0  0  0  0  0  0  0  0
  -27.3767  -30.7289  -22.0382 N   0  0  0  0  0  0  0  0  0  0  0  0
  -28.2117  -29.9978  -21.2710 C   0  0  0  0  0  0  0  0  0  0  0  0
  -27.8267  -29.8479  -20.0136 N   0  0  0  0  0  0  0  0  0  0  0  0
  -26.6846  -30.6160  -19.9176 N   0  0  0  0  0  0  0  0  0  0  0  0
  1  2  1  0
  2  3  1  0
  3  4  1  0
  4  5  1  0
  3  6  1  0
  6  7  2  0
  7  8  1  0
  8  9  2  0
  8 10  2  0
  8 11  1  0
 11 12  1  0
 12 13  2  0
 13 14  1  0
 14 15  2  0
 15 16  1  0
 16 17  1  0
 17 18  1  0
 17 19  2  0
 19 20  1  0
 20 21  2  0
 20 22  1  0
 19 23  1  0
 23 24  2  0
  7 25  1  0
 25 26  1  0
 25 27  2  0
 27 28  1  0
 27 29  1  0
 29 30  2  0
 30 31  1  0
 31 32  2  0
 32 33  1  0
 33  6  1  0
 24 12  1  0
 33 29  1  0
 23 15  1  0
M  END
>  <inchikey>  (8) 
BRMJOQVMAZPDSJ-UHFFFAOYSA-N

>  <fragmenstein_mode>  (8) 
expansion

>  <exports>  (8) 
['/opt/xchem-fragalysis-2/maxwin/BulkDock/OUTPUTS/green_site_rna_tunnel_fstein_bulkdock_input_split1000_batch001_217910.sdf']

>  <name>  (8) 
BRMJOQVMAZPDSJ-UHFFFAOYSA-N

>  <ref_pdb>  (8) 
z0900b

>  <alias>  (8) 
None

>  <energy_score>  (8) 
-148.936041

>  <SLURM_JOB_NAME>  (8) 
BulkDock.place:Flavi_NS5_RdRp:green_site_rna_tunnel_fstein_bulkdock_input_split1000_batch001

>  <tags>  (8) 
['Fragmenstein placed']

>  <fragmenstein_error>  (8) 
None

>  <original SMILES>  (8) 
CCN(CC)c1c(S(=O)(=O)Nc2ccc3oc(C)c(C(=O)O)c3c2)c(C)c(Cl)c2ncnn12

>  <csv_name>  (8) 
green_site_rna_tunnel_fstein_bulkdock_input_split1000_batch001.csv

>  <ref_mols>  (8) 
z0521a,z0900b

>  <distance_score>  (8) 
0.983551

>  <SLURM_JOB_ID>  (8) 
217910

>  <original ID>  (8) 
BRMJOQVMAZPDSJ-UHFFFAOYSA-N

>  <HIPPO Pose ID>  (8) 
78215

>  <scratch_subdir>  (8) 
/opt/xchem-fragalysis-2/maxwin/BulkDock/SCRATCH/217910/C67841-P180

>  <fragmenstein_runtime>  (8) 
10.784704

>  <HIPPO Compound ID>  (8) 
67841

>  <fragmenstein_outcome>  (8) 
acceptable

$$$$
78441
     RDKit          3D

 17 17  0  0  0  0  0  0  0  0999 V2000
  -24.8704  -32.1933  -21.0345 C   0  0  0  0  0  0  0  0  0  0  0  0
  -25.0963  -30.7642  -20.5893 C   0  0  0  0  0  0  0  0  0  0  0  0
  -26.5516  -30.3731  -20.6467 C   0  0  0  0  0  0  0  0  0  0  0  0
  -27.3824  -31.1422  -21.1434 O   0  0  0  0  0  0  0  0  0  0  0  0
  -27.0101  -29.0926  -20.0033 C   0  0  1  0  0  0  0  0  0  0  0  0
  -27.5893  -29.3436  -18.6133 C   0  0  0  0  0  0  0  0  0  0  0  0
  -26.7890  -29.2985  -17.4536 C   0  0  0  0  0  0  0  0  0  0  0  0
  -27.3242  -29.5631  -16.1914 C   0  0  0  0  0  0  0  0  0  0  0  0
  -28.6599  -29.9040  -16.0710 C   0  0  0  0  0  0  0  0  0  0  0  0
  -29.1736  -30.1583  -14.8615 F   0  0  0  0  0  0  0  0  0  0  0  0
  -29.4670  -30.0097  -17.1915 C   0  0  0  0  0  0  0  0  0  0  0  0
  -28.9491  -29.7438  -18.4711 C   0  0  0  0  0  0  0  0  0  0  0  0
  -29.8694  -30.0023  -19.6431 C   0  0  0  0  0  0  0  0  0  0  0  0
  -25.7539  -27.8099  -20.1121 S   0  0  0  0  0  0  0  0  0  0  0  0
  -26.3740  -26.5376  -19.2405 N   0  0  0  0  0  0  0  0  0  0  0  0
  -25.6761  -27.3528  -21.4810 O   0  0  0  0  0  0  0  0  0  0  0  0
  -24.5499  -28.1755  -19.3961 O   0  0  0  0  0  0  0  0  0  0  0  0
  1  2  1  0
  2  3  1  0
  3  4  2  0
  5  3  1  1
  5  6  1  0
  6  7  2  0
  7  8  1  0
  8  9  2  0
  9 10  1  0
  9 11  1  0
 11 12  2  0
 12 13  1  0
  5 14  1  0
 14 15  1  0
 14 16  2  0
 14 17  2  0
 12  6  1  0
M  END
>  <inchikey>  (9) 
HTSMIWQQYRUIDD-LLVKDONJSA-N

>  <fragmenstein_mode>  (9) 
expansion

>  <exports>  (9) 
['/opt/xchem-fragalysis-2/maxwin/BulkDock/OUTPUTS/green_site_rna_tunnel_fstein_bulkdock_input_split1000_batch001_217910.sdf']

>  <name>  (9) 
HTSMIWQQYRUIDD-LLVKDONJSA-N

>  <ref_pdb>  (9) 
z0625a

>  <alias>  (9) 
None

>  <energy_score>  (9) 
-81.082486

>  <SLURM_JOB_NAME>  (9) 
BulkDock.place:Flavi_NS5_RdRp:green_site_rna_tunnel_fstein_bulkdock_input_split1000_batch001

>  <tags>  (9) 
['Fragmenstein placed']

>  <fragmenstein_error>  (9) 
None

>  <original SMILES>  (9) 
CCC(=O)[C@@H](c1ccc(F)cc1C)S(N)(=O)=O

>  <csv_name>  (9) 
green_site_rna_tunnel_fstein_bulkdock_input_split1000_batch001.csv

>  <ref_mols>  (9) 
z0111a,z0625a

>  <distance_score>  (9) 
0.795826

>  <SLURM_JOB_ID>  (9) 
217910

>  <original ID>  (9) 
HTSMIWQQYRUIDD-LLVKDONJSA-N

>  <HIPPO Pose ID>  (9) 
78441

>  <scratch_subdir>  (9) 
/opt/xchem-fragalysis-2/maxwin/BulkDock/SCRATCH/217910/C67899-P148

>  <fragmenstein_runtime>  (9) 
3.043369

>  <HIPPO Compound ID>  (9) 
67899

>  <fragmenstein_outcome>  (9) 
acceptable

$$$$
78496
     RDKit          3D

 24 25  0  0  0  0  0  0  0  0999 V2000
  -29.7155  -30.0159  -19.8026 C   0  0  0  0  0  0  0  0  0  0  0  0
  -28.8626  -29.7375  -18.5893 C   0  0  0  0  0  0  0  0  0  0  0  0
  -29.4270  -29.9630  -17.3220 C   0  0  0  0  0  0  0  0  0  0  0  0
  -28.6617  -29.8116  -16.1747 C   0  0  0  0  0  0  0  0  0  0  0  0
  -29.2131  -30.0458  -14.9772 F   0  0  0  0  0  0  0  0  0  0  0  0
  -27.3283  -29.4489  -16.2561 C   0  0  0  0  0  0  0  0  0  0  0  0
  -26.7542  -29.2057  -17.5047 C   0  0  0  0  0  0  0  0  0  0  0  0
  -27.5087  -29.3156  -18.6925 C   0  0  0  0  0  0  0  0  0  0  0  0
  -26.8632  -29.1453  -20.0697 C   0  0  2  0  0  0  0  0  0  0  0  0
  -26.1650  -30.3546  -20.7033 C   0  0  0  0  0  0  0  0  0  0  0  0
  -25.8070  -30.2818  -21.8133 O   0  0  0  0  0  0  0  0  0  0  0  0
  -26.0509  -31.5204  -19.6846 N   0  0  0  0  0  0  0  0  0  0  0  0
  -25.3946  -32.7881  -19.7927 C   0  0  0  0  0  0  0  0  0  0  0  0
  -23.8818  -32.5848  -19.8084 C   0  0  0  0  0  0  0  0  0  0  0  0
  -23.2604  -32.7779  -18.5111 N   0  0  0  0  0  0  0  0  0  0  0  0
  -22.4841  -33.9550  -18.2252 C   0  0  0  0  0  0  0  0  0  0  0  0
  -22.1890  -33.8369  -16.7474 C   0  0  0  0  0  0  0  0  0  0  0  0
  -22.1945  -32.3372  -16.4843 C   0  0  0  0  0  0  0  0  0  0  0  0
  -23.1482  -31.8103  -17.5279 C   0  0  0  0  0  0  0  0  0  0  0  0
  -23.6824  -30.7150  -17.5070 O   0  0  0  0  0  0  0  0  0  0  0  0
  -25.6881  -27.7667  -20.1897 S   0  0  0  0  0  0  0  0  0  0  0  0
  -26.3320  -26.5751  -19.2038 N   0  0  0  0  0  0  0  0  0  0  0  0
  -25.7369  -27.1871  -21.5135 O   0  0  0  0  0  0  0  0  0  0  0  0
  -24.4259  -28.0923  -19.5622 O   0  0  0  0  0  0  0  0  0  0  0  0
  1  2  1  0
  2  3  2  0
  3  4  1  0
  4  5  1  0
  4  6  2  0
  6  7  1  0
  7  8  2  0
  8  9  1  0
  9 10  1  1
 10 11  2  0
 10 12  1  0
 12 13  1  0
 13 14  1  0
 14 15  1  0
 15 16  1  0
 16 17  1  0
 17 18  1  0
 18 19  1  0
 19 20  2  0
  9 21  1  0
 21 22  1  0
 21 23  2  0
 21 24  2  0
  8  2  1  0
 19 15  1  0
M  END
>  <inchikey>  (10) 
ICBWQGQBBOHSCL-CQSZACIVSA-N

>  <fragmenstein_mode>  (10) 
expansion

>  <exports>  (10) 
['/opt/xchem-fragalysis-2/maxwin/BulkDock/OUTPUTS/green_site_rna_tunnel_fstein_bulkdock_input_split1000_batch001_217910.sdf']

>  <name>  (10) 
ICBWQGQBBOHSCL-CQSZACIVSA-N

>  <ref_pdb>  (10) 
z0625a

>  <alias>  (10) 
None

>  <energy_score>  (10) 
-40.526638

>  <SLURM_JOB_NAME>  (10) 
BulkDock.place:Flavi_NS5_RdRp:green_site_rna_tunnel_fstein_bulkdock_input_split1000_batch001

>  <tags>  (10) 
['Fragmenstein placed']

>  <fragmenstein_error>  (10) 
None

>  <original SMILES>  (10) 
Cc1cc(F)ccc1[C@H](C(=O)NCCN1CCCC1=O)S(N)(=O)=O

>  <csv_name>  (10) 
green_site_rna_tunnel_fstein_bulkdock_input_split1000_batch001.csv

>  <ref_mols>  (10) 
z0625a,z0637a

>  <distance_score>  (10) 
0.992221

>  <SLURM_JOB_ID>  (10) 
217910

>  <original ID>  (10) 
ICBWQGQBBOHSCL-CQSZACIVSA-N

>  <HIPPO Pose ID>  (10) 
78496

>  <scratch_subdir>  (10) 
/opt/xchem-fragalysis-2/maxwin/BulkDock/SCRATCH/217910/C67916-P148

>  <fragmenstein_runtime>  (10) 
4.959513

>  <HIPPO Compound ID>  (10) 
67916

>  <fragmenstein_outcome>  (10) 
acceptable

$$$$
79373
     RDKit          3D

 20 21  0  0  0  0  0  0  0  0999 V2000
  -29.1963  -29.7375  -17.2157 C   0  0  0  0  0  0  0  0  0  0  0  0
  -28.6629  -29.9038  -18.6072 C   0  0  0  0  0  0  0  0  0  0  0  0
  -29.5799  -29.7460  -19.6458 C   0  0  0  0  0  0  0  0  0  0  0  0
  -29.1459  -29.7221  -20.9514 C   0  0  0  0  0  0  0  0  0  0  0  0
  -30.0169  -29.3855  -21.9099 F   0  0  0  0  0  0  0  0  0  0  0  0
  -27.8483  -30.0803  -21.2760 C   0  0  0  0  0  0  0  0  0  0  0  0
  -26.9433  -30.4416  -20.2741 C   0  0  0  0  0  0  0  0  0  0  0  0
  -25.6848  -31.0097  -20.5555 N   0  0  0  0  0  0  0  0  0  0  0  0
  -25.2802  -31.2690  -21.9488 C   0  0  0  0  0  0  0  0  0  0  0  0
  -24.2827  -32.4309  -22.0508 C   0  0  1  0  0  0  0  0  0  0  0  0
  -23.8508  -32.6475  -23.5081 C   0  0  0  0  0  0  0  0  0  0  0  0
  -22.3389  -32.7647  -23.4526 C   0  0  0  0  0  0  0  0  0  0  0  0
  -21.9571  -31.9357  -22.3058 N   0  0  0  0  0  0  0  0  0  0  0  0
  -22.9723  -32.2388  -21.2945 C   0  0  0  0  0  0  0  0  0  0  0  0
  -27.3070  -30.1756  -18.9209 C   0  0  0  0  0  0  0  0  0  0  0  0
  -26.1961  -29.9181  -17.9186 C   0  0  0  0  0  0  0  0  0  0  0  0
  -26.1310  -31.0115  -16.5197 S   0  0  0  0  0  0  0  0  0  0  0  0
  -26.9556  -30.1668  -15.3249 N   0  0  0  0  0  0  0  0  0  0  0  0
  -24.7723  -31.0535  -16.0210 O   0  0  0  0  0  0  0  0  0  0  0  0
  -26.8839  -32.2240  -16.7383 O   0  0  0  0  0  0  0  0  0  0  0  0
  1  2  1  0
  2  3  2  0
  3  4  1  0
  4  5  1  0
  4  6  2  0
  6  7  1  0
  7  8  1  0
  8  9  1  0
 10  9  1  6
 10 11  1  0
 11 12  1  0
 12 13  1  0
 13 14  1  0
  7 15  2  0
 15 16  1  0
 16 17  1  0
 17 18  1  0
 17 19  2  0
 17 20  2  0
 15  2  1  0
 14 10  1  0
M  END
>  <inchikey>  (11) 
ASEZRDYLEWFNNI-JTQLQIEISA-N

>  <fragmenstein_mode>  (11) 
expansion

>  <exports>  (11) 
['/opt/xchem-fragalysis-2/maxwin/BulkDock/OUTPUTS/green_site_rna_tunnel_fstein_bulkdock_input_split1000_batch001_217910.sdf']

>  <name>  (11) 
ASEZRDYLEWFNNI-JTQLQIEISA-N

>  <ref_pdb>  (11) 
z0351a

>  <alias>  (11) 
None

>  <energy_score>  (11) 
-27.890556

>  <SLURM_JOB_NAME>  (11) 
BulkDock.place:Flavi_NS5_RdRp:green_site_rna_tunnel_fstein_bulkdock_input_split1000_batch001

>  <tags>  (11) 
['Fragmenstein placed']

>  <fragmenstein_error>  (11) 
None

>  <original SMILES>  (11) 
Cc1cc(F)cc(NC[C@H]2CCNC2)c1CS(N)(=O)=O

>  <csv_name>  (11) 
green_site_rna_tunnel_fstein_bulkdock_input_split1000_batch001.csv

>  <ref_mols>  (11) 
z0351a,z0637a

>  <distance_score>  (11) 
0.856383

>  <SLURM_JOB_ID>  (11) 
217910

>  <original ID>  (11) 
ASEZRDYLEWFNNI-JTQLQIEISA-N

>  <HIPPO Pose ID>  (11) 
79373

>  <scratch_subdir>  (11) 
/opt/xchem-fragalysis-2/maxwin/BulkDock/SCRATCH/217910/C67908-P115

>  <fragmenstein_runtime>  (11) 
2.872098

>  <HIPPO Compound ID>  (11) 
67908

>  <fragmenstein_outcome>  (11) 
acceptable

$$$$
79377
     RDKit          3D

 20 21  0  0  0  0  0  0  0  0999 V2000
  -28.9070  -29.4687  -17.0473 C   0  0  0  0  0  0  0  0  0  0  0  0
  -28.4228  -29.6800  -18.4525 C   0  0  0  0  0  0  0  0  0  0  0  0
  -29.3799  -29.6021  -19.4674 C   0  0  0  0  0  0  0  0  0  0  0  0
  -28.9855  -29.6695  -20.7856 C   0  0  0  0  0  0  0  0  0  0  0  0
  -29.8785  -29.4188  -21.7516 F   0  0  0  0  0  0  0  0  0  0  0  0
  -27.6886  -30.0274  -21.1199 C   0  0  0  0  0  0  0  0  0  0  0  0
  -26.7491  -30.3180  -20.1306 C   0  0  0  0  0  0  0  0  0  0  0  0
  -25.4746  -30.8313  -20.4312 N   0  0  0  0  0  0  0  0  0  0  0  0
  -25.2166  -31.3820  -21.7690 C   0  0  0  0  0  0  0  0  0  0  0  0
  -24.1088  -32.4363  -21.7667 C   0  0  1  0  0  0  0  0  0  0  0  0
  -23.7650  -32.9086  -23.1877 C   0  0  0  0  0  0  0  0  0  0  0  0
  -22.2717  -32.6676  -23.3358 C   0  0  0  0  0  0  0  0  0  0  0  0
  -21.7787  -32.7034  -21.9626 N   0  0  0  0  0  0  0  0  0  0  0  0
  -22.7816  -31.9691  -21.1848 C   0  0  0  0  0  0  0  0  0  0  0  0
  -27.0715  -29.9447  -18.7995 C   0  0  0  0  0  0  0  0  0  0  0  0
  -25.9340  -29.5305  -17.8850 C   0  0  0  0  0  0  0  0  0  0  0  0
  -25.3830  -30.6848  -16.6897 S   0  0  0  0  0  0  0  0  0  0  0  0
  -26.5601  -30.6222  -15.4974 N   0  0  0  0  0  0  0  0  0  0  0  0
  -24.2124  -30.1514  -16.0291 O   0  0  0  0  0  0  0  0  0  0  0  0
  -25.3897  -32.0067  -17.2609 O   0  0  0  0  0  0  0  0  0  0  0  0
  1  2  1  0
  2  3  2  0
  3  4  1  0
  4  5  1  0
  4  6  2  0
  6  7  1  0
  7  8  1  0
  8  9  1  0
 10  9  1  6
 10 11  1  0
 11 12  1  0
 12 13  1  0
 13 14  1  0
  7 15  2  0
 15 16  1  0
 16 17  1  0
 17 18  1  0
 17 19  2  0
 17 20  2  0
 15  2  1  0
 14 10  1  0
M  END
>  <inchikey>  (12) 
ASEZRDYLEWFNNI-JTQLQIEISA-N

>  <fragmenstein_mode>  (12) 
expansion

>  <exports>  (12) 
['/opt/xchem-fragalysis-2/maxwin/BulkDock/OUTPUTS/green_site_rna_tunnel_fstein_bulkdock_input_split1000_batch001_217910.sdf']

>  <name>  (12) 
ASEZRDYLEWFNNI-JTQLQIEISA-N

>  <ref_pdb>  (12) 
z0637a

>  <alias>  (12) 
None

>  <energy_score>  (12) 
-34.45987

>  <SLURM_JOB_NAME>  (12) 
BulkDock.place:Flavi_NS5_RdRp:green_site_rna_tunnel_fstein_bulkdock_input_split1000_batch001

>  <tags>  (12) 
['Fragmenstein placed']

>  <fragmenstein_error>  (12) 
None

>  <original SMILES>  (12) 
Cc1cc(F)cc(NC[C@H]2CCNC2)c1CS(N)(=O)=O

>  <csv_name>  (12) 
green_site_rna_tunnel_fstein_bulkdock_input_split1000_batch001.csv

>  <ref_mols>  (12) 
z0351a,z0637a

>  <distance_score>  (12) 
0.989302

>  <SLURM_JOB_ID>  (12) 
217910

>  <original ID>  (12) 
ASEZRDYLEWFNNI-JTQLQIEISA-N

>  <HIPPO Pose ID>  (12) 
79377

>  <scratch_subdir>  (12) 
/opt/xchem-fragalysis-2/maxwin/BulkDock/SCRATCH/217910/C67908-P151

>  <fragmenstein_runtime>  (12) 
3.580361

>  <HIPPO Compound ID>  (12) 
67908

>  <fragmenstein_outcome>  (12) 
acceptable

$$$$
79512
     RDKit          3D

 17 19  0  0  0  0  0  0  0  0999 V2000
  -30.3699  -29.8928  -20.7255 C   0  0  0  0  0  0  0  0  0  0  0  0
  -29.4010  -29.8580  -19.6147 C   0  0  0  0  0  0  0  0  0  0  0  0
  -29.7380  -29.6781  -18.2720 C   0  0  0  0  0  0  0  0  0  0  0  0
  -28.5620  -29.7807  -17.5957 C   0  0  0  0  0  0  0  0  0  0  0  0
  -28.2523  -29.7357  -16.2176 C   0  0  0  0  0  0  0  0  0  0  0  0
  -26.9779  -29.8943  -15.8416 C   0  0  0  0  0  0  0  0  0  0  0  0
  -25.9089  -30.0369  -16.7928 C   0  0  0  0  0  0  0  0  0  0  0  0
  -26.1721  -30.1257  -18.1116 C   0  0  0  0  0  0  0  0  0  0  0  0
  -25.1290  -30.3054  -19.0259 N   0  0  0  0  0  0  0  0  0  0  0  0
  -24.7256  -31.6760  -19.3908 C   0  0  0  0  0  0  0  0  0  0  0  0
  -23.2465  -31.9033  -19.0858 C   0  0  1  0  0  0  0  0  0  0  0  0
  -22.9142  -31.9375  -17.5975 C   0  0  0  0  0  0  0  0  0  0  0  0
  -21.5903  -32.6688  -17.5765 C   0  0  0  0  0  0  0  0  0  0  0  0
  -21.7645  -33.7237  -18.5674 N   0  0  0  0  0  0  0  0  0  0  0  0
  -22.6829  -33.2225  -19.6011 C   0  0  0  0  0  0  0  0  0  0  0  0
  -27.5389  -30.0019  -18.5332 N   0  0  0  0  0  0  0  0  0  0  0  0
  -28.0886  -30.0580  -19.7964 N   0  0  0  0  0  0  0  0  0  0  0  0
  1  2  1  0
  2  3  1  0
  3  4  2  0
  4  5  1  0
  5  6  2  0
  6  7  1  0
  7  8  2  0
  8  9  1  0
  9 10  1  0
 11 10  1  1
 11 12  1  0
 12 13  1  0
 13 14  1  0
 14 15  1  0
  8 16  1  0
 16 17  1  0
 17  2  2  0
 16  4  1  0
 15 11  1  0
M  END
>  <inchikey>  (13) 
PASWEVDTJXEMNV-NSHDSACASA-N

>  <fragmenstein_mode>  (13) 
expansion

>  <exports>  (13) 
['/opt/xchem-fragalysis-2/maxwin/BulkDock/OUTPUTS/green_site_rna_tunnel_fstein_bulkdock_input_split1000_batch001_217910.sdf']

>  <name>  (13) 
PASWEVDTJXEMNV-NSHDSACASA-N

>  <ref_pdb>  (13) 
z0637a

>  <alias>  (13) 
None

>  <energy_score>  (13) 
-12.918401

>  <SLURM_JOB_NAME>  (13) 
BulkDock.place:Flavi_NS5_RdRp:green_site_rna_tunnel_fstein_bulkdock_input_split1000_batch001

>  <tags>  (13) 
['Fragmenstein placed']

>  <fragmenstein_error>  (13) 
None

>  <original SMILES>  (13) 
Cc1cc2cccc(NC[C@H]3CCNC3)n2n1

>  <csv_name>  (13) 
green_site_rna_tunnel_fstein_bulkdock_input_split1000_batch001.csv

>  <ref_mols>  (13) 
z0496a,z0637a

>  <distance_score>  (13) 
0.817329

>  <SLURM_JOB_ID>  (13) 
217910

>  <original ID>  (13) 
PASWEVDTJXEMNV-NSHDSACASA-N

>  <HIPPO Pose ID>  (13) 
79512

>  <scratch_subdir>  (13) 
/opt/xchem-fragalysis-2/maxwin/BulkDock/SCRATCH/217910/C67990-P151

>  <fragmenstein_runtime>  (13) 
2.724094

>  <HIPPO Compound ID>  (13) 
67990

>  <fragmenstein_outcome>  (13) 
acceptable

$$$$
80298
     RDKit          3D

 15 16  0  0  0  0  0  0  0  0999 V2000
  -22.8480  -31.8995  -20.0880 N   0  0  0  0  0  0  0  0  0  0  0  0
  -24.4721  -31.5529  -19.9516 S   0  0  2  0  0  0  0  0  0  0  0  0
  -25.2108  -32.9799  -19.7029 O   0  0  0  0  0  0  0  0  0  0  0  0
  -25.2013  -31.0023  -21.3709 C   0  0  0  0  0  0  0  0  0  0  0  0
  -26.8486  -30.5465  -21.2792 S   0  0  0  0  0  0  0  0  0  0  0  0
  -27.5441  -31.7525  -21.6392 O   0  0  0  0  0  0  0  0  0  0  0  0
  -26.9767  -29.3191  -22.0375 O   0  0  0  0  0  0  0  0  0  0  0  0
  -27.2910  -30.1851  -19.6184 C   0  0  0  0  0  0  0  0  0  0  0  0
  -28.6507  -29.8710  -19.4175 C   0  0  0  0  0  0  0  0  0  0  0  0
  -29.1278  -29.6202  -18.1379 C   0  0  0  0  0  0  0  0  0  0  0  0
  -28.2304  -29.6207  -17.0812 C   0  0  0  0  0  0  0  0  0  0  0  0
  -28.8540  -29.5736  -15.3104 Br  0  0  0  0  0  0  0  0  0  0  0  0
  -26.8724  -29.8676  -17.2863 C   0  0  0  0  0  0  0  0  0  0  0  0
  -26.3832  -30.2280  -18.5520 C   0  0  0  0  0  0  0  0  0  0  0  0
  -24.9320  -30.6152  -18.5822 C   0  0  0  0  0  0  0  0  0  0  0  0
  2  1  1  6
  2  3  2  0
  2  4  2  0
  4  5  1  0
  5  6  2  0
  5  7  2  0
  5  8  1  0
  8  9  2  0
  9 10  1  0
 10 11  2  0
 11 12  1  0
 11 13  1  0
 13 14  2  0
 14 15  1  0
 15  2  1  0
 14  8  1  0
M  END
>  <inchikey>  (14) 
NLOONPXQULMSGD-CQSZACIVSA-N

>  <fragmenstein_mode>  (14) 
expansion

>  <exports>  (14) 
['/opt/xchem-fragalysis-2/maxwin/BulkDock/OUTPUTS/green_site_rna_tunnel_fstein_bulkdock_input_split1000_batch001_217910.sdf']

>  <name>  (14) 
NLOONPXQULMSGD-CQSZACIVSA-N

>  <ref_pdb>  (14) 
z0041a

>  <alias>  (14) 
None

>  <energy_score>  (14) 
-48.364599

>  <SLURM_JOB_NAME>  (14) 
BulkDock.place:Flavi_NS5_RdRp:green_site_rna_tunnel_fstein_bulkdock_input_split1000_batch001

>  <tags>  (14) 
['Fragmenstein placed']

>  <fragmenstein_error>  (14) 
None

>  <original SMILES>  (14) 
N[S@]1(=O)=CS(=O)(=O)c2ccc(Br)cc2C1

>  <csv_name>  (14) 
green_site_rna_tunnel_fstein_bulkdock_input_split1000_batch001.csv

>  <ref_mols>  (14) 
z0041a,z0764a

>  <distance_score>  (14) 
0.897388

>  <SLURM_JOB_ID>  (14) 
217910

>  <original ID>  (14) 
NLOONPXQULMSGD-CQSZACIVSA-N

>  <HIPPO Pose ID>  (14) 
80298

>  <scratch_subdir>  (14) 
/opt/xchem-fragalysis-2/maxwin/BulkDock/SCRATCH/217910/C68058-P82

>  <fragmenstein_runtime>  (14) 
2.233767

>  <HIPPO Compound ID>  (14) 
68058

>  <fragmenstein_outcome>  (14) 
acceptable

$$$$
80299
     RDKit          3D

 15 16  0  0  0  0  0  0  0  0999 V2000
  -23.3130  -31.9512  -20.5865 N   0  0  0  0  0  0  0  0  0  0  0  0
  -24.9210  -31.6077  -20.3282 S   0  0  2  0  0  0  0  0  0  0  0  0
  -25.6740  -33.0440  -20.1052 O   0  0  0  0  0  0  0  0  0  0  0  0
  -25.7653  -31.0008  -21.6652 C   0  0  0  0  0  0  0  0  0  0  0  0
  -27.1508  -30.0195  -21.3885 S   0  0  0  0  0  0  0  0  0  0  0  0
  -28.1874  -30.5823  -22.2187 O   0  0  0  0  0  0  0  0  0  0  0  0
  -26.7044  -28.6549  -21.5542 O   0  0  0  0  0  0  0  0  0  0  0  0
  -27.6665  -30.2057  -19.7157 C   0  0  0  0  0  0  0  0  0  0  0  0
  -29.0316  -29.9971  -19.4503 C   0  0  0  0  0  0  0  0  0  0  0  0
  -29.5174  -30.1077  -18.1505 C   0  0  0  0  0  0  0  0  0  0  0  0
  -28.6363  -30.4238  -17.1283 C   0  0  0  0  0  0  0  0  0  0  0  0
  -29.2332  -30.5787  -15.3529 Br  0  0  0  0  0  0  0  0  0  0  0  0
  -27.2895  -30.6517  -17.3966 C   0  0  0  0  0  0  0  0  0  0  0  0
  -26.7747  -30.5618  -18.6973 C   0  0  0  0  0  0  0  0  0  0  0  0
  -25.2996  -30.7846  -18.8578 C   0  0  0  0  0  0  0  0  0  0  0  0
  2  1  1  6
  2  3  2  0
  2  4  2  0
  4  5  1  0
  5  6  2  0
  5  7  2  0
  5  8  1  0
  8  9  2  0
  9 10  1  0
 10 11  2  0
 11 12  1  0
 11 13  1  0
 13 14  2  0
 14 15  1  0
 15  2  1  0
 14  8  1  0
M  END
>  <inchikey>  (15) 
NLOONPXQULMSGD-CQSZACIVSA-N

>  <fragmenstein_mode>  (15) 
expansion

>  <exports>  (15) 
['/opt/xchem-fragalysis-2/maxwin/BulkDock/OUTPUTS/green_site_rna_tunnel_fstein_bulkdock_input_split1000_batch001_217910.sdf']

>  <name>  (15) 
NLOONPXQULMSGD-CQSZACIVSA-N

>  <ref_pdb>  (15) 
z0764a

>  <alias>  (15) 
None

>  <energy_score>  (15) 
-51.838908

>  <SLURM_JOB_NAME>  (15) 
BulkDock.place:Flavi_NS5_RdRp:green_site_rna_tunnel_fstein_bulkdock_input_split1000_batch001

>  <tags>  (15) 
['Fragmenstein placed']

>  <fragmenstein_error>  (15) 
None

>  <original SMILES>  (15) 
N[S@]1(=O)=CS(=O)(=O)c2ccc(Br)cc2C1

>  <csv_name>  (15) 
green_site_rna_tunnel_fstein_bulkdock_input_split1000_batch001.csv

>  <ref_mols>  (15) 
z0041a,z0764a

>  <distance_score>  (15) 
0.651715

>  <SLURM_JOB_ID>  (15) 
217910

>  <original ID>  (15) 
NLOONPXQULMSGD-CQSZACIVSA-N

>  <HIPPO Pose ID>  (15) 
80299

>  <scratch_subdir>  (15) 
/opt/xchem-fragalysis-2/maxwin/BulkDock/SCRATCH/217910/C68058-P161

>  <fragmenstein_runtime>  (15) 
1.928044

>  <HIPPO Compound ID>  (15) 
68058

>  <fragmenstein_outcome>  (15) 
acceptable

$$$$
80967
     RDKit          3D

 19 20  0  0  0  0  0  0  0  0999 V2000
  -29.2022  -31.5950  -15.5020 C   0  0  0  0  0  0  0  0  0  0  0  0
  -28.8837  -30.1581  -15.8828 C   0  0  0  0  0  0  0  0  0  0  0  0
  -27.9712  -30.0755  -17.0831 C   0  0  0  0  0  0  0  0  0  0  0  0
  -26.5817  -30.0410  -16.8987 C   0  0  0  0  0  0  0  0  0  0  0  0
  -25.7200  -29.9457  -17.9926 C   0  0  0  0  0  0  0  0  0  0  0  0
  -26.2270  -29.8795  -19.2863 C   0  0  0  0  0  0  0  0  0  0  0  0
  -27.6048  -29.9350  -19.4866 C   0  0  0  0  0  0  0  0  0  0  0  0
  -28.4750  -30.0475  -18.3905 C   0  0  0  0  0  0  0  0  0  0  0  0
  -29.8347  -30.1335  -18.5439 O   0  0  0  0  0  0  0  0  0  0  0  0
  -28.1050  -29.8677  -20.8694 C   0  0  0  0  0  0  0  0  0  0  0  0
  -29.3075  -30.0171  -21.0727 O   0  0  0  0  0  0  0  0  0  0  0  0
  -27.0843  -29.5115  -21.9255 C   0  0  2  0  0  0  0  0  0  0  0  0
  -27.5039  -29.8205  -23.3408 C   0  0  0  0  0  0  0  0  0  0  0  0
  -25.7475  -30.1840  -21.5901 C   0  0  1  0  0  0  0  0  0  0  0  0
  -25.7702  -31.7279  -21.5661 C   0  0  0  0  0  0  0  0  0  0  0  0
  -24.7516  -29.9257  -22.5961 O   0  0  0  0  0  0  0  0  0  0  0  0
  -24.5960  -28.6167  -23.0886 C   0  0  0  0  0  0  0  0  0  0  0  0
  -24.7443  -27.6518  -22.0770 O   0  0  0  0  0  0  0  0  0  0  0  0
  -25.2962  -29.7696  -20.2871 O   0  0  0  0  0  0  0  0  0  0  0  0
  1  2  1  0
  2  3  1  0
  3  4  2  0
  4  5  1  0
  5  6  2  0
  6  7  1  0
  7  8  2  0
  8  9  1  0
  7 10  1  0
 10 11  2  0
 10 12  1  0
 12 13  1  6
 12 14  1  0
 14 15  1  1
 14 16  1  0
 16 17  1  0
 17 18  1  0
 14 19  1  0
  8  3  1  0
 19  6  1  0
M  END
>  <inchikey>  (16) 
ZEYOCRIIYUXUMN-RTHLEPHNSA-N

>  <fragmenstein_mode>  (16) 
expansion

>  <exports>  (16) 
['/opt/xchem-fragalysis-2/maxwin/BulkDock/OUTPUTS/green_site_rna_tunnel_fstein_bulkdock_input_split1000_batch001_217910.sdf']

>  <name>  (16) 
ZEYOCRIIYUXUMN-RTHLEPHNSA-N

>  <ref_pdb>  (16) 
z0922a

>  <alias>  (16) 
None

>  <energy_score>  (16) 
-47.303961

>  <SLURM_JOB_NAME>  (16) 
BulkDock.place:Flavi_NS5_RdRp:green_site_rna_tunnel_fstein_bulkdock_input_split1000_batch001

>  <tags>  (16) 
['Fragmenstein placed']

>  <fragmenstein_error>  (16) 
None

>  <original SMILES>  (16) 
CCc1ccc2c(c1O)C(=O)[C@H](C)[C@@](C)(OCO)O2

>  <csv_name>  (16) 
green_site_rna_tunnel_fstein_bulkdock_input_split1000_batch001.csv

>  <ref_mols>  (16) 
z0903a,z0922a

>  <distance_score>  (16) 
0.920402

>  <SLURM_JOB_ID>  (16) 
217910

>  <original ID>  (16) 
ZEYOCRIIYUXUMN-RTHLEPHNSA-N

>  <HIPPO Pose ID>  (16) 
80967

>  <scratch_subdir>  (16) 
/opt/xchem-fragalysis-2/maxwin/BulkDock/SCRATCH/217910/C68193-P191

>  <fragmenstein_runtime>  (16) 
3.008929

>  <HIPPO Compound ID>  (16) 
68193

>  <fragmenstein_outcome>  (16) 
acceptable

$$$$
80997
     RDKit          3D

 19 20  0  0  0  0  0  0  0  0999 V2000
  -26.8884  -31.0781  -21.5479 C   0  0  0  0  0  0  0  0  0  0  0  0
  -26.9723  -29.5090  -21.6463 C   0  0  0  0  0  0  0  0  0  0  0  0
  -26.3679  -29.1469  -22.9985 C   0  0  0  0  0  0  0  0  0  0  0  0
  -28.3625  -29.1722  -21.6490 O   0  0  0  0  0  0  0  0  0  0  0  0
  -29.0868  -29.5436  -20.5646 C   0  0  0  0  0  0  0  0  0  0  0  0
  -30.2675  -29.8385  -20.6467 O   0  0  0  0  0  0  0  0  0  0  0  0
  -28.3638  -29.5981  -19.2671 C   0  0  0  0  0  0  0  0  0  0  0  0
  -29.0274  -29.9915  -18.1044 C   0  0  0  0  0  0  0  0  0  0  0  0
  -28.3192  -30.0661  -16.9033 C   0  0  0  0  0  0  0  0  0  0  0  0
  -29.2608  -30.5259  -15.3323 Br  0  0  0  0  0  0  0  0  0  0  0  0
  -26.9487  -29.7942  -16.8706 C   0  0  0  0  0  0  0  0  0  0  0  0
  -26.2519  -29.8810  -15.6988 O   0  0  0  0  0  0  0  0  0  0  0  0
  -26.2869  -29.4234  -18.0339 C   0  0  0  0  0  0  0  0  0  0  0  0
  -27.0074  -29.2739  -19.2191 C   0  0  0  0  0  0  0  0  0  0  0  0
  -26.3929  -28.8458  -20.4347 N   0  0  0  0  0  0  0  0  0  0  0  0
  -25.3195  -27.5277  -20.4116 S   0  0  0  0  0  0  0  0  0  0  0  0
  -26.0678  -26.4179  -19.2473 C   0  0  0  0  0  0  0  0  0  0  0  0
  -25.3249  -26.8519  -21.6839 O   0  0  0  0  0  0  0  0  0  0  0  0
  -24.0658  -27.9757  -19.8272 O   0  0  0  0  0  0  0  0  0  0  0  0
  1  2  1  0
  2  3  1  0
  2  4  1  0
  4  5  1  0
  5  6  2  0
  5  7  1  0
  7  8  2  0
  8  9  1  0
  9 10  1  0
  9 11  2  0
 11 12  1  0
 11 13  1  0
 13 14  2  0
 14 15  1  0
 15 16  1  0
 16 17  1  0
 16 18  2  0
 16 19  2  0
 15  2  1  0
 14  7  1  0
M  END
>  <inchikey>  (17) 
BXQQKVWFFIFXHV-UHFFFAOYSA-N

>  <fragmenstein_mode>  (17) 
expansion

>  <exports>  (17) 
['/opt/xchem-fragalysis-2/maxwin/BulkDock/OUTPUTS/green_site_rna_tunnel_fstein_bulkdock_input_split1000_batch001_217910.sdf']

>  <name>  (17) 
BXQQKVWFFIFXHV-UHFFFAOYSA-N

>  <ref_pdb>  (17) 
z0364a

>  <alias>  (17) 
None

>  <energy_score>  (17) 
-28.295826

>  <SLURM_JOB_NAME>  (17) 
BulkDock.place:Flavi_NS5_RdRp:green_site_rna_tunnel_fstein_bulkdock_input_split1000_batch001

>  <tags>  (17) 
['Fragmenstein placed']

>  <fragmenstein_error>  (17) 
None

>  <original SMILES>  (17) 
CC1(C)OC(=O)c2cc(Br)c(O)cc2N1S(C)(=O)=O

>  <csv_name>  (17) 
green_site_rna_tunnel_fstein_bulkdock_input_split1000_batch001.csv

>  <ref_mols>  (17) 
z0364a,z0922a

>  <distance_score>  (17) 
0.87044

>  <SLURM_JOB_ID>  (17) 
217910

>  <original ID>  (17) 
BXQQKVWFFIFXHV-UHFFFAOYSA-N

>  <HIPPO Pose ID>  (17) 
80997

>  <scratch_subdir>  (17) 
/opt/xchem-fragalysis-2/maxwin/BulkDock/SCRATCH/217910/C68216-P118

>  <fragmenstein_runtime>  (17) 
4.203968

>  <HIPPO Compound ID>  (17) 
68216

>  <fragmenstein_outcome>  (17) 
acceptable

$$$$
81253
     RDKit          3D

 16 17  0  0  0  0  0  0  0  0999 V2000
  -23.2611  -32.2355  -21.6586 C   0  0  0  0  0  0  0  0  0  0  0  0
  -24.4534  -31.6497  -22.4086 C   0  0  1  0  0  0  0  0  0  0  0  0
  -25.0865  -32.7154  -23.2011 N   0  0  0  0  0  0  0  0  0  0  0  0
  -25.5046  -31.0265  -21.5156 C   0  0  0  0  0  0  0  0  0  0  0  0
  -25.5847  -31.0091  -20.0956 C   0  0  0  0  0  0  0  0  0  0  0  0
  -26.7616  -30.3456  -19.7694 C   0  0  0  0  0  0  0  0  0  0  0  0
  -27.3838  -30.0971  -18.4473 C   0  0  0  0  0  0  0  0  0  0  0  0
  -26.5777  -30.0488  -17.2936 C   0  0  0  0  0  0  0  0  0  0  0  0
  -27.1387  -29.9860  -16.0101 C   0  0  0  0  0  0  0  0  0  0  0  0
  -28.5191  -29.9628  -15.8486 C   0  0  0  0  0  0  0  0  0  0  0  0
  -29.3361  -29.9916  -16.9699 C   0  0  0  0  0  0  0  0  0  0  0  0
  -28.7722  -30.0484  -18.2460 C   0  0  0  0  0  0  0  0  0  0  0  0
  -29.6801  -30.1244  -19.2616 O   0  0  0  0  0  0  0  0  0  0  0  0
  -27.2544  -30.0005  -20.9931 N   0  0  0  0  0  0  0  0  0  0  0  0
  -28.3773  -29.2594  -21.2741 O   0  0  0  0  0  0  0  0  0  0  0  0
  -26.5580  -30.3883  -22.0536 N   0  0  0  0  0  0  0  0  0  0  0  0
  2  1  1  1
  2  3  1  0
  2  4  1  0
  4  5  1  0
  5  6  2  0
  6  7  1  0
  7  8  2  0
  8  9  1  0
  9 10  2  0
 10 11  1  0
 11 12  2  0
 12 13  1  0
  6 14  1  0
 14 15  1  0
 14 16  1  0
 16  4  2  0
 12  7  1  0
M  END
>  <inchikey>  (18) 
PYZPZDYLKDXWAY-SSDOTTSWSA-N

>  <fragmenstein_mode>  (18) 
expansion

>  <exports>  (18) 
['/opt/xchem-fragalysis-2/maxwin/BulkDock/OUTPUTS/green_site_rna_tunnel_fstein_bulkdock_input_split1000_batch001_217910.sdf']

>  <name>  (18) 
PYZPZDYLKDXWAY-SSDOTTSWSA-N

>  <ref_pdb>  (18) 
z0215a

>  <alias>  (18) 
None

>  <energy_score>  (18) 
-43.995594

>  <SLURM_JOB_NAME>  (18) 
BulkDock.place:Flavi_NS5_RdRp:green_site_rna_tunnel_fstein_bulkdock_input_split1000_batch001

>  <tags>  (18) 
['Fragmenstein placed']

>  <fragmenstein_error>  (18) 
None

>  <original SMILES>  (18) 
C[C@@H](N)c1cc(-c2ccccc2O)n(O)n1

>  <csv_name>  (18) 
green_site_rna_tunnel_fstein_bulkdock_input_split1000_batch001.csv

>  <ref_mols>  (18) 
z0215a,z0995a

>  <distance_score>  (18) 
0.814938

>  <SLURM_JOB_ID>  (18) 
217910

>  <original ID>  (18) 
PYZPZDYLKDXWAY-SSDOTTSWSA-N

>  <HIPPO Pose ID>  (18) 
81253

>  <scratch_subdir>  (18) 
/opt/xchem-fragalysis-2/maxwin/BulkDock/SCRATCH/217910/C68339-P104

>  <fragmenstein_runtime>  (18) 
9.871195

>  <HIPPO Compound ID>  (18) 
68339

>  <fragmenstein_outcome>  (18) 
acceptable

$$$$
81254
     RDKit          3D

 16 17  0  0  0  0  0  0  0  0999 V2000
  -23.3137  -32.3135  -21.6489 C   0  0  0  0  0  0  0  0  0  0  0  0
  -24.4906  -31.6884  -22.3892 C   0  0  1  0  0  0  0  0  0  0  0  0
  -25.1286  -32.7082  -23.2438 N   0  0  0  0  0  0  0  0  0  0  0  0
  -25.5471  -31.0975  -21.4843 C   0  0  0  0  0  0  0  0  0  0  0  0
  -25.6407  -31.0977  -20.0677 C   0  0  0  0  0  0  0  0  0  0  0  0
  -26.7921  -30.3878  -19.7493 C   0  0  0  0  0  0  0  0  0  0  0  0
  -27.4110  -30.1133  -18.4391 C   0  0  0  0  0  0  0  0  0  0  0  0
  -26.6217  -30.1130  -17.2779 C   0  0  0  0  0  0  0  0  0  0  0  0
  -27.2056  -29.9910  -16.0095 C   0  0  0  0  0  0  0  0  0  0  0  0
  -28.5795  -29.8044  -15.8776 C   0  0  0  0  0  0  0  0  0  0  0  0
  -29.3786  -29.7703  -17.0131 C   0  0  0  0  0  0  0  0  0  0  0  0
  -28.7975  -29.9445  -18.2723 C   0  0  0  0  0  0  0  0  0  0  0  0
  -29.6263  -29.9993  -19.3626 O   0  0  0  0  0  0  0  0  0  0  0  0
  -27.2540  -29.9795  -20.9766 N   0  0  0  0  0  0  0  0  0  0  0  0
  -28.2396  -29.0533  -21.2465 O   0  0  0  0  0  0  0  0  0  0  0  0
  -26.5993  -30.4674  -22.0239 N   0  0  0  0  0  0  0  0  0  0  0  0
  2  1  1  1
  2  3  1  0
  2  4  1  0
  4  5  1  0
  5  6  2  0
  6  7  1  0
  7  8  2  0
  8  9  1  0
  9 10  2  0
 10 11  1  0
 11 12  2  0
 12 13  1  0
  6 14  1  0
 14 15  1  0
 14 16  1  0
 16  4  2  0
 12  7  1  0
M  END
>  <inchikey>  (19) 
PYZPZDYLKDXWAY-SSDOTTSWSA-N

>  <fragmenstein_mode>  (19) 
expansion

>  <exports>  (19) 
['/opt/xchem-fragalysis-2/maxwin/BulkDock/OUTPUTS/green_site_rna_tunnel_fstein_bulkdock_input_split1000_batch001_217910.sdf']

>  <name>  (19) 
PYZPZDYLKDXWAY-SSDOTTSWSA-N

>  <ref_pdb>  (19) 
z0995a

>  <alias>  (19) 
None

>  <energy_score>  (19) 
-39.903976

>  <SLURM_JOB_NAME>  (19) 
BulkDock.place:Flavi_NS5_RdRp:green_site_rna_tunnel_fstein_bulkdock_input_split1000_batch001

>  <tags>  (19) 
['Fragmenstein placed']

>  <fragmenstein_error>  (19) 
None

>  <original SMILES>  (19) 
C[C@@H](N)c1cc(-c2ccccc2O)n(O)n1

>  <csv_name>  (19) 
green_site_rna_tunnel_fstein_bulkdock_input_split1000_batch001.csv

>  <ref_mols>  (19) 
z0215a,z0995a

>  <distance_score>  (19) 
0.932472

>  <SLURM_JOB_ID>  (19) 
217910

>  <original ID>  (19) 
PYZPZDYLKDXWAY-SSDOTTSWSA-N

>  <HIPPO Pose ID>  (19) 
81254

>  <scratch_subdir>  (19) 
/opt/xchem-fragalysis-2/maxwin/BulkDock/SCRATCH/217910/C68339-P203

>  <fragmenstein_runtime>  (19) 
9.8267

>  <HIPPO Compound ID>  (19) 
68339

>  <fragmenstein_outcome>  (19) 
acceptable

$$$$
81355
     RDKit          3D

 21 23  0  0  0  0  0  0  0  0999 V2000
  -28.3111  -29.5560  -21.5704 C   0  0  0  0  0  0  0  0  0  0  0  0
  -27.4196  -30.1173  -20.5696 N   0  0  0  0  0  0  0  0  0  0  0  0
  -26.2777  -30.7685  -21.0023 C   0  0  0  0  0  0  0  0  0  0  0  0
  -26.1255  -30.9935  -22.2015 O   0  0  0  0  0  0  0  0  0  0  0  0
  -25.3458  -31.1656  -20.0391 N   0  0  0  0  0  0  0  0  0  0  0  0
  -24.2115  -32.0170  -20.5526 C   0  0  0  0  0  0  0  0  0  0  0  0
  -23.3590  -31.4484  -21.6945 C   0  0  0  0  0  0  0  0  0  0  0  0
  -22.7963  -32.4513  -22.5969 N   0  0  0  0  0  0  0  0  0  0  0  0
  -21.3751  -32.5357  -22.8239 C   0  0  0  0  0  0  0  0  0  0  0  0
  -21.2665  -32.8994  -24.2888 C   0  0  0  0  0  0  0  0  0  0  0  0
  -22.5312  -33.6977  -24.5591 C   0  0  0  0  0  0  0  0  0  0  0  0
  -23.5219  -33.0582  -23.6206 C   0  0  0  0  0  0  0  0  0  0  0  0
  -24.7320  -33.1166  -23.7628 O   0  0  0  0  0  0  0  0  0  0  0  0
  -25.5788  -30.9941  -18.6547 C   0  0  0  0  0  0  0  0  0  0  0  0
  -24.4254  -31.3297  -17.4688 S   0  0  0  0  0  0  0  0  0  0  0  0
  -26.9435  -30.5241  -18.2409 C   0  0  0  0  0  0  0  0  0  0  0  0
  -27.3699  -30.5015  -16.8938 C   0  0  0  0  0  0  0  0  0  0  0  0
  -28.6830  -30.1819  -16.5492 C   0  0  0  0  0  0  0  0  0  0  0  0
  -29.5929  -29.8860  -17.5465 C   0  0  0  0  0  0  0  0  0  0  0  0
  -29.1732  -29.8620  -18.8743 C   0  0  0  0  0  0  0  0  0  0  0  0
  -27.8441  -30.1582  -19.2294 C   0  0  0  0  0  0  0  0  0  0  0  0
  1  2  1  0
  2  3  1  0
  3  4  2  0
  3  5  1  0
  5  6  1  0
  6  7  1  0
  7  8  1  0
  8  9  1  0
  9 10  1  0
 10 11  1  0
 11 12  1  0
 12 13  2  0
  5 14  1  0
 14 15  2  0
 14 16  1  0
 16 17  2  0
 17 18  1  0
 18 19  2  0
 19 20  1  0
 20 21  2  0
 21  2  1  0
 12  8  1  0
 21 16  1  0
M  END
>  <inchikey>  (20) 
KZGPDDSEMZONAM-UHFFFAOYSA-N

>  <fragmenstein_mode>  (20) 
expansion

>  <exports>  (20) 
['/opt/xchem-fragalysis-2/maxwin/BulkDock/OUTPUTS/green_site_rna_tunnel_fstein_bulkdock_input_split1000_batch001_217910.sdf']

>  <name>  (20) 
KZGPDDSEMZONAM-UHFFFAOYSA-N

>  <ref_pdb>  (20) 
z0309a

>  <alias>  (20) 
None

>  <energy_score>  (20) 
-34.154073

>  <SLURM_JOB_NAME>  (20) 
BulkDock.place:Flavi_NS5_RdRp:green_site_rna_tunnel_fstein_bulkdock_input_split1000_batch001

>  <tags>  (20) 
['Fragmenstein placed']

>  <fragmenstein_error>  (20) 
None

>  <original SMILES>  (20) 
Cn1c(=O)n(CCN2CCCC2=O)c(=S)c2ccccc21

>  <csv_name>  (20) 
green_site_rna_tunnel_fstein_bulkdock_input_split1000_batch001.csv

>  <ref_mols>  (20) 
z0309a,z1018a

>  <distance_score>  (20) 
0.777669

>  <SLURM_JOB_ID>  (20) 
217910

>  <original ID>  (20) 
KZGPDDSEMZONAM-UHFFFAOYSA-N

>  <HIPPO Pose ID>  (20) 
81355

>  <scratch_subdir>  (20) 
/opt/xchem-fragalysis-2/maxwin/BulkDock/SCRATCH/217910/C68384-P113

>  <fragmenstein_runtime>  (20) 
2.103494

>  <HIPPO Compound ID>  (20) 
68384

>  <fragmenstein_outcome>  (20) 
acceptable

$$$$
81356
     RDKit          3D

 21 23  0  0  0  0  0  0  0  0999 V2000
  -28.5825  -29.4834  -21.5795 C   0  0  0  0  0  0  0  0  0  0  0  0
  -27.7710  -30.2607  -20.6487 N   0  0  0  0  0  0  0  0  0  0  0  0
  -26.6578  -30.9215  -21.1285 C   0  0  0  0  0  0  0  0  0  0  0  0
  -26.4384  -30.9951  -22.3384 O   0  0  0  0  0  0  0  0  0  0  0  0
  -25.7675  -31.4566  -20.2050 N   0  0  0  0  0  0  0  0  0  0  0  0
  -24.7692  -32.3896  -20.8087 C   0  0  0  0  0  0  0  0  0  0  0  0
  -23.6301  -31.6932  -21.5800 C   0  0  0  0  0  0  0  0  0  0  0  0
  -22.9459  -32.5403  -22.5567 N   0  0  0  0  0  0  0  0  0  0  0  0
  -21.5068  -32.6740  -22.5543 C   0  0  0  0  0  0  0  0  0  0  0  0
  -21.1524  -32.9396  -24.0055 C   0  0  0  0  0  0  0  0  0  0  0  0
  -22.4016  -33.5881  -24.5787 C   0  0  0  0  0  0  0  0  0  0  0  0
  -23.5023  -32.9629  -23.7586 C   0  0  0  0  0  0  0  0  0  0  0  0
  -24.6690  -32.8890  -24.1125 O   0  0  0  0  0  0  0  0  0  0  0  0
  -25.7640  -31.0749  -18.8499 C   0  0  0  0  0  0  0  0  0  0  0  0
  -24.4905  -31.4081  -17.7961 S   0  0  0  0  0  0  0  0  0  0  0  0
  -27.0042  -30.3835  -18.3565 C   0  0  0  0  0  0  0  0  0  0  0  0
  -27.2093  -30.0549  -17.0008 C   0  0  0  0  0  0  0  0  0  0  0  0
  -28.4576  -29.6367  -16.5422 C   0  0  0  0  0  0  0  0  0  0  0  0
  -29.5016  -29.4966  -17.4393 C   0  0  0  0  0  0  0  0  0  0  0  0
  -29.2762  -29.6933  -18.7985 C   0  0  0  0  0  0  0  0  0  0  0  0
  -28.0237  -30.1212  -19.2676 C   0  0  0  0  0  0  0  0  0  0  0  0
  1  2  1  0
  2  3  1  0
  3  4  2  0
  3  5  1  0
  5  6  1  0
  6  7  1  0
  7  8  1  0
  8  9  1  0
  9 10  1  0
 10 11  1  0
 11 12  1  0
 12 13  2  0
  5 14  1  0
 14 15  2  0
 14 16  1  0
 16 17  2  0
 17 18  1  0
 18 19  2  0
 19 20  1  0
 20 21  2  0
 21  2  1  0
 12  8  1  0
 21 16  1  0
M  END
>  <inchikey>  (21) 
KZGPDDSEMZONAM-UHFFFAOYSA-N

>  <fragmenstein_mode>  (21) 
expansion

>  <exports>  (21) 
['/opt/xchem-fragalysis-2/maxwin/BulkDock/OUTPUTS/green_site_rna_tunnel_fstein_bulkdock_input_split1000_batch001_217910.sdf']

>  <name>  (21) 
KZGPDDSEMZONAM-UHFFFAOYSA-N

>  <ref_pdb>  (21) 
z1018a

>  <alias>  (21) 
None

>  <energy_score>  (21) 
-39.738341

>  <SLURM_JOB_NAME>  (21) 
BulkDock.place:Flavi_NS5_RdRp:green_site_rna_tunnel_fstein_bulkdock_input_split1000_batch001

>  <tags>  (21) 
['Fragmenstein placed']

>  <fragmenstein_error>  (21) 
None

>  <original SMILES>  (21) 
Cn1c(=O)n(CCN2CCCC2=O)c(=S)c2ccccc21

>  <csv_name>  (21) 
green_site_rna_tunnel_fstein_bulkdock_input_split1000_batch001.csv

>  <ref_mols>  (21) 
z0309a,z1018a

>  <distance_score>  (21) 
0.822001

>  <SLURM_JOB_ID>  (21) 
217910

>  <original ID>  (21) 
KZGPDDSEMZONAM-UHFFFAOYSA-N

>  <HIPPO Pose ID>  (21) 
81356

>  <scratch_subdir>  (21) 
/opt/xchem-fragalysis-2/maxwin/BulkDock/SCRATCH/217910/C68384-P206

>  <fragmenstein_runtime>  (21) 
1.958677

>  <HIPPO Compound ID>  (21) 
68384

>  <fragmenstein_outcome>  (21) 
acceptable

$$$$
81418
     RDKit          3D

 18 20  0  0  0  0  0  0  0  0999 V2000
  -24.4084  -30.6002  -16.0932 C   0  0  0  0  0  0  0  0  0  0  0  0
  -25.0253  -31.0804  -17.3177 N   0  0  0  0  0  0  0  0  0  0  0  0
  -24.7956  -32.5102  -17.6052 C   0  0  0  0  0  0  0  0  0  0  0  0
  -24.8161  -32.9229  -19.0825 C   0  0  1  0  0  0  0  0  0  0  0  0
  -26.1627  -33.3705  -19.6390 C   0  0  0  0  0  0  0  0  0  0  0  0
  -26.0335  -33.0874  -21.1232 C   0  0  0  0  0  0  0  0  0  0  0  0
  -25.2196  -31.8818  -21.2146 N   0  0  0  0  0  0  0  0  0  0  0  0
  -24.2899  -31.8948  -20.0789 C   0  0  0  0  0  0  0  0  0  0  0  0
  -26.3583  -30.7057  -17.4857 C   0  0  0  0  0  0  0  0  0  0  0  0
  -27.2844  -30.7420  -16.4481 C   0  0  0  0  0  0  0  0  0  0  0  0
  -28.6240  -30.5153  -16.7276 C   0  0  0  0  0  0  0  0  0  0  0  0
  -29.0110  -30.2997  -18.0490 C   0  0  0  0  0  0  0  0  0  0  0  0
  -30.3539  -30.1929  -18.4038 C   0  0  0  0  0  0  0  0  0  0  0  0
  -30.7273  -30.0634  -19.7397 C   0  0  0  0  0  0  0  0  0  0  0  0
  -29.7494  -29.9656  -20.7179 C   0  0  0  0  0  0  0  0  0  0  0  0
  -28.4057  -30.0470  -20.3572 C   0  0  0  0  0  0  0  0  0  0  0  0
  -28.0199  -30.2284  -19.0356 C   0  0  0  0  0  0  0  0  0  0  0  0
  -26.7261  -30.3798  -18.7380 N   0  0  0  0  0  0  0  0  0  0  0  0
  1  2  1  0
  2  3  1  0
  4  3  1  1
  4  5  1  0
  5  6  1  0
  6  7  1  0
  7  8  1  0
  2  9  1  0
  9 10  2  0
 10 11  1  0
 11 12  2  0
 12 13  1  0
 13 14  2  0
 14 15  1  0
 15 16  2  0
 16 17  1  0
 17 18  2  0
  8  4  1  0
 18  9  1  0
 17 12  1  0
M  END
>  <inchikey>  (22) 
ZWWZBAUAVBEARZ-LBPRGKRZSA-N

>  <fragmenstein_mode>  (22) 
expansion

>  <exports>  (22) 
['/opt/xchem-fragalysis-2/maxwin/BulkDock/OUTPUTS/green_site_rna_tunnel_fstein_bulkdock_input_split1000_batch001_217910.sdf']

>  <name>  (22) 
ZWWZBAUAVBEARZ-LBPRGKRZSA-N

>  <ref_pdb>  (22) 
z1040a

>  <alias>  (22) 
None

>  <energy_score>  (22) 
-15.942828

>  <SLURM_JOB_NAME>  (22) 
BulkDock.place:Flavi_NS5_RdRp:green_site_rna_tunnel_fstein_bulkdock_input_split1000_batch001

>  <tags>  (22) 
['Fragmenstein placed']

>  <fragmenstein_error>  (22) 
None

>  <original SMILES>  (22) 
CN(C[C@H]1CCNC1)c1ccc2ccccc2n1

>  <csv_name>  (22) 
green_site_rna_tunnel_fstein_bulkdock_input_split1000_batch001.csv

>  <ref_mols>  (22) 
d0472b,z1040a

>  <distance_score>  (22) 
0.993239

>  <SLURM_JOB_ID>  (22) 
217910

>  <original ID>  (22) 
ZWWZBAUAVBEARZ-LBPRGKRZSA-N

>  <HIPPO Pose ID>  (22) 
81418

>  <scratch_subdir>  (22) 
/opt/xchem-fragalysis-2/maxwin/BulkDock/SCRATCH/217910/C68415-P208

>  <fragmenstein_runtime>  (22) 
1.892709

>  <HIPPO Compound ID>  (22) 
68415

>  <fragmenstein_outcome>  (22) 
acceptable

$$$$
81428
     RDKit          3D

 24 26  0  0  0  0  0  0  0  0999 V2000
  -25.3426  -32.5220  -15.2422 C   0  0  0  0  0  0  0  0  0  0  0  0
  -25.3234  -31.1252  -15.6595 N   0  0  0  0  0  0  0  0  0  0  0  0
  -26.3688  -30.8040  -16.5478 C   0  0  0  0  0  0  0  0  0  0  0  0
  -27.6122  -30.5553  -15.9438 C   0  0  0  0  0  0  0  0  0  0  0  0
  -28.7589  -30.3179  -16.6880 C   0  0  0  0  0  0  0  0  0  0  0  0
  -28.7046  -30.3328  -18.0772 C   0  0  0  0  0  0  0  0  0  0  0  0
  -29.8906  -30.1354  -18.8007 C   0  0  0  0  0  0  0  0  0  0  0  0
  -29.8904  -30.1128  -20.1898 C   0  0  0  0  0  0  0  0  0  0  0  0
  -28.6943  -30.2836  -20.8681 C   0  0  0  0  0  0  0  0  0  0  0  0
  -27.5118  -30.5108  -20.1588 C   0  0  0  0  0  0  0  0  0  0  0  0
  -27.4709  -30.5653  -18.7405 C   0  0  0  0  0  0  0  0  0  0  0  0
  -26.2869  -30.8367  -17.9589 C   0  0  0  0  0  0  0  0  0  0  0  0
  -25.1158  -31.1832  -18.6871 N   0  0  0  0  0  0  0  0  0  0  0  0
  -23.6584  -31.4539  -18.1906 C   0  0  0  0  0  0  0  0  0  0  0  0
  -23.2047  -31.3577  -17.1464 O   0  0  0  0  0  0  0  0  0  0  0  0
  -23.0051  -31.8916  -19.5349 N   0  0  0  0  0  0  0  0  0  0  0  0
  -21.6738  -32.3866  -19.8121 C   0  0  0  0  0  0  0  0  0  0  0  0
  -20.9662  -32.9916  -18.5933 C   0  0  0  0  0  0  0  0  0  0  0  0
  -19.8965  -33.9135  -18.9568 N   0  0  0  0  0  0  0  0  0  0  0  0
  -20.1612  -35.2851  -19.3094 C   0  0  0  0  0  0  0  0  0  0  0  0
  -18.7732  -35.8775  -19.4423 C   0  0  0  0  0  0  0  0  0  0  0  0
  -17.9342  -34.7127  -19.9539 C   0  0  0  0  0  0  0  0  0  0  0  0
  -18.6488  -33.5007  -19.4035 C   0  0  0  0  0  0  0  0  0  0  0  0
  -18.2075  -32.3642  -19.4118 O   0  0  0  0  0  0  0  0  0  0  0  0
  1  2  1  0
  2  3  1  0
  3  4  2  0
  4  5  1  0
  5  6  2  0
  6  7  1  0
  7  8  2  0
  8  9  1  0
  9 10  2  0
 10 11  1  0
 11 12  2  0
 12 13  1  0
 13 14  1  0
 14 15  2  0
 14 16  1  0
 16 17  1  0
 17 18  1  0
 18 19  1  0
 19 20  1  0
 20 21  1  0
 21 22  1  0
 22 23  1  0
 23 24  2  0
 12  3  1  0
 23 19  1  0
 11  6  1  0
M  END
>  <inchikey>  (23) 
KWNDKUHQZANDAD-UHFFFAOYSA-N

>  <fragmenstein_mode>  (23) 
expansion

>  <exports>  (23) 
['/opt/xchem-fragalysis-2/maxwin/BulkDock/OUTPUTS/green_site_rna_tunnel_fstein_bulkdock_input_split1000_batch001_217910.sdf']

>  <name>  (23) 
KWNDKUHQZANDAD-UHFFFAOYSA-N

>  <ref_pdb>  (23) 
z1040a

>  <alias>  (23) 
None

>  <energy_score>  (23) 
-24.269331

>  <SLURM_JOB_NAME>  (23) 
BulkDock.place:Flavi_NS5_RdRp:green_site_rna_tunnel_fstein_bulkdock_input_split1000_batch001

>  <tags>  (23) 
['Fragmenstein placed']

>  <fragmenstein_error>  (23) 
None

>  <original SMILES>  (23) 
CNc1ccc2ccccc2c1NC(=O)NCCN1CCCC1=O

>  <csv_name>  (23) 
green_site_rna_tunnel_fstein_bulkdock_input_split1000_batch001.csv

>  <ref_mols>  (23) 
z0309a,z1040a

>  <distance_score>  (23) 
0.835015

>  <SLURM_JOB_ID>  (23) 
217910

>  <original ID>  (23) 
KWNDKUHQZANDAD-UHFFFAOYSA-N

>  <HIPPO Pose ID>  (23) 
81428

>  <scratch_subdir>  (23) 
/opt/xchem-fragalysis-2/maxwin/BulkDock/SCRATCH/217910/C68425-P208

>  <fragmenstein_runtime>  (23) 
4.797041

>  <HIPPO Compound ID>  (23) 
68425

>  <fragmenstein_outcome>  (23) 
acceptable

$$$$
81808
     RDKit          3D

 31 33  0  0  0  0  0  0  0  0999 V2000
  -23.6722  -35.3874  -18.3307 C   0  0  0  0  0  0  0  0  0  0  0  0
  -22.1776  -35.1204  -18.2728 C   0  0  0  0  0  0  0  0  0  0  0  0
  -21.3698  -34.9731  -16.6539 S   0  0  0  0  0  0  0  0  0  0  0  0
  -21.4922  -33.1970  -16.3458 C   0  0  0  0  0  0  0  0  0  0  0  0
  -22.9097  -32.6448  -16.3722 C   0  0  0  0  0  0  0  0  0  0  0  0
  -23.2644  -32.0117  -17.7209 C   0  0  0  0  0  0  0  0  0  0  0  0
  -24.1693  -30.8118  -17.5176 C   0  0  0  0  0  0  0  0  0  0  0  0
  -23.4573  -29.5339  -17.1759 C   0  0  1  0  0  0  0  0  0  0  0  0
  -23.1621  -29.0659  -15.7759 C   0  0  0  0  0  0  0  0  0  0  0  0
  -22.0378  -29.5373  -16.6403 C   0  0  2  0  0  0  0  0  0  0  0  0
  -21.0000  -28.6196  -17.1763 C   0  0  0  0  0  0  0  0  0  0  0  0
  -20.1660  -29.3239  -18.2505 C   0  0  0  0  0  0  0  0  0  0  0  0
  -20.6311  -29.1192  -19.6940 C   0  0  2  0  0  0  0  0  0  0  0  0
  -22.0883  -29.3512  -20.0318 C   0  0  0  0  0  0  0  0  0  0  0  0
  -19.5635  -29.8892  -20.8815 S   0  0  0  0  0  0  0  0  0  0  0  0
  -20.1651  -29.8150  -22.1913 O   0  0  0  0  0  0  0  0  0  0  0  0
  -18.2772  -29.2638  -20.6843 O   0  0  0  0  0  0  0  0  0  0  0  0
  -19.3479  -31.4239  -20.3587 N   0  0  0  0  0  0  0  0  0  0  0  0
  -20.0266  -32.5877  -20.7902 C   0  0  0  0  0  0  0  0  0  0  0  0
  -19.4370  -33.7908  -20.3800 C   0  0  0  0  0  0  0  0  0  0  0  0
  -20.0367  -35.0180  -20.6428 C   0  0  0  0  0  0  0  0  0  0  0  0
  -21.2679  -34.9748  -21.2896 C   0  0  0  0  0  0  0  0  0  0  0  0
  -22.0302  -36.0626  -21.5375 O   0  0  0  0  0  0  0  0  0  0  0  0
  -23.1634  -35.6337  -22.1459 C   0  0  0  0  0  0  0  0  0  0  0  0
  -24.1375  -36.6947  -22.4850 C   0  0  0  0  0  0  0  0  0  0  0  0
  -23.1396  -34.2553  -22.3152 C   0  0  0  0  0  0  0  0  0  0  0  0
  -24.2068  -33.5150  -22.9497 C   0  0  0  0  0  0  0  0  0  0  0  0
  -25.3174  -33.9588  -23.2067 O   0  0  0  0  0  0  0  0  0  0  0  0
  -23.9134  -32.2336  -23.2774 O   0  0  0  0  0  0  0  0  0  0  0  0
  -21.9056  -33.8184  -21.7219 C   0  0  0  0  0  0  0  0  0  0  0  0
  -21.2601  -32.5867  -21.4655 C   0  0  0  0  0  0  0  0  0  0  0  0
  1  2  1  0
  2  3  1  0
  3  4  1  0
  4  5  1  0
  5  6  1  0
  6  7  1  0
  8  7  1  1
  8  9  1  0
  9 10  1  0
 10 11  1  6
 11 12  1  0
 12 13  1  0
 13 14  1  1
 13 15  1  0
 15 16  2  0
 15 17  2  0
 15 18  1  0
 18 19  1  0
 19 20  2  0
 20 21  1  0
 21 22  2  0
 22 23  1  0
 23 24  1  0
 24 25  1  0
 24 26  2  0
 26 27  1  0
 27 28  2  0
 27 29  1  0
 26 30  1  0
 30 31  2  0
 10  8  1  0
 31 19  1  0
 30 22  1  0
M  END
>  <inchikey>  (24) 
LGWGAPSBGWKGAV-SZMVWBNQSA-N

>  <fragmenstein_mode>  (24) 
expansion

>  <exports>  (24) 
['/opt/xchem-fragalysis-2/maxwin/BulkDock/OUTPUTS/green_site_rna_tunnel_fstein_bulkdock_input_split1000_batch001_217910.sdf']

>  <name>  (24) 
LGWGAPSBGWKGAV-SZMVWBNQSA-N

>  <ref_pdb>  (24) 
3vws-b

>  <alias>  (24) 
None

>  <energy_score>  (24) 
-92.012264

>  <SLURM_JOB_NAME>  (24) 
BulkDock.place:Flavi_NS5_RdRp:green_site_rna_tunnel_fstein_bulkdock_input_split1000_batch001

>  <tags>  (24) 
['Fragmenstein placed']

>  <fragmenstein_error>  (24) 
None

>  <original SMILES>  (24) 
CCSCCCC[C@H]1C[C@@H]1CC[C@H](C)S(=O)(=O)Nc1ccc2oc(C)c(C(=O)O)c2c1

>  <csv_name>  (24) 
green_site_rna_tunnel_fstein_bulkdock_input_split1000_batch001.csv

>  <ref_mols>  (24) 
z0637a,3vws-b

>  <distance_score>  (24) 
0.991737

>  <SLURM_JOB_ID>  (24) 
217910

>  <original ID>  (24) 
LGWGAPSBGWKGAV-SZMVWBNQSA-N

>  <HIPPO Pose ID>  (24) 
81808

>  <scratch_subdir>  (24) 
/opt/xchem-fragalysis-2/maxwin/BulkDock/SCRATCH/217910/C68508-P217

>  <fragmenstein_runtime>  (24) 
153.64523

>  <HIPPO Compound ID>  (24) 
68508

>  <fragmenstein_outcome>  (24) 
acceptable

$$$$
81841
     RDKit          3D

 27 29  0  0  0  0  0  0  0  0999 V2000
  -20.0245  -32.5969  -24.2278 C   0  0  0  0  0  0  0  0  0  0  0  0
  -19.9693  -32.6267  -22.8058 O   0  0  0  0  0  0  0  0  0  0  0  0
  -21.1635  -32.8852  -22.1844 C   0  0  0  0  0  0  0  0  0  0  0  0
  -22.1662  -33.6434  -22.8168 C   0  0  0  0  0  0  0  0  0  0  0  0
  -23.4085  -33.8174  -22.2247 C   0  0  0  0  0  0  0  0  0  0  0  0
  -23.6535  -33.2508  -20.9857 C   0  0  0  0  0  0  0  0  0  0  0  0
  -24.9631  -33.3042  -20.4497 N   0  0  0  0  0  0  0  0  0  0  0  0
  -25.5778  -32.1179  -20.2642 C   0  0  0  0  0  0  0  0  0  0  0  0
  -26.3146  -31.7579  -19.1725 C   0  0  0  0  0  0  0  0  0  0  0  0
  -26.3393  -30.3898  -19.2275 N   0  0  0  0  0  0  0  0  0  0  0  0
  -26.6548  -29.5325  -18.1115 C   0  0  0  0  0  0  0  0  0  0  0  0
  -27.9166  -28.7116  -18.1598 C   0  0  0  0  0  0  0  0  0  0  0  0
  -28.1316  -28.1590  -16.9395 F   0  0  0  0  0  0  0  0  0  0  0  0
  -28.9895  -29.4561  -18.4823 F   0  0  0  0  0  0  0  0  0  0  0  0
  -27.8627  -27.6856  -19.0261 F   0  0  0  0  0  0  0  0  0  0  0  0
  -25.7833  -30.0226  -20.4286 C   0  0  0  0  0  0  0  0  0  0  0  0
  -25.9778  -28.7007  -20.9885 C   0  0  0  0  0  0  0  0  0  0  0  0
  -24.9687  -28.0132  -21.7674 C   0  0  0  0  0  0  0  0  0  0  0  0
  -24.4663  -27.1180  -22.3080 N   0  0  0  0  0  0  0  0  0  0  0  0
  -25.3351  -31.0623  -21.0804 N   0  0  0  0  0  0  0  0  0  0  0  0
  -22.6275  -32.5715  -20.3074 C   0  0  0  0  0  0  0  0  0  0  0  0
  -21.3651  -32.3813  -20.8864 C   0  0  0  0  0  0  0  0  0  0  0  0
  -20.3553  -31.6959  -20.0794 C   0  0  0  0  0  0  0  0  0  0  0  0
  -20.4836  -31.1126  -18.8974 N   0  0  0  0  0  0  0  0  0  0  0  0
  -19.2159  -30.7736  -18.4746 N   0  0  0  0  0  0  0  0  0  0  0  0
  -18.4077  -31.1993  -19.4110 C   0  0  0  0  0  0  0  0  0  0  0  0
  -19.0394  -31.7669  -20.4705 O   0  0  0  0  0  0  0  0  0  0  0  0
  1  2  1  0
  2  3  1  0
  3  4  2  0
  4  5  1  0
  5  6  2  0
  6  7  1  0
  7  8  1  0
  8  9  2  0
  9 10  1  0
 10 11  1  0
 11 12  1  0
 12 13  1  0
 12 14  1  0
 12 15  1  0
 10 16  1  0
 16 17  1  0
 17 18  1  0
 18 19  3  0
 16 20  2  0
  6 21  1  0
 21 22  2  0
 22 23  1  0
 23 24  2  0
 24 25  1  0
 25 26  2  0
 26 27  1  0
 22  3  1  0
 27 23  1  0
 20  8  1  0
M  END
>  <inchikey>  (25) 
MWMZDMJMTUQLQG-UHFFFAOYSA-N

>  <fragmenstein_mode>  (25) 
expansion

>  <exports>  (25) 
['/opt/xchem-fragalysis-2/maxwin/BulkDock/OUTPUTS/green_site_rna_tunnel_fstein_bulkdock_input_split1000_batch000_217965.sdf']

>  <name>  (25) 
MWMZDMJMTUQLQG-UHFFFAOYSA-N

>  <ref_pdb>  (25) 
d0411a

>  <alias>  (25) 
None

>  <energy_score>  (25) 
-8.826654

>  <SLURM_JOB_NAME>  (25) 
BulkDock.place:Flavi_NS5_RdRp:green_site_rna_tunnel_fstein_bulkdock_input_split1000_batch000

>  <tags>  (25) 
['Fragmenstein placed']

>  <fragmenstein_error>  (25) 
None

>  <original SMILES>  (25) 
COc1ccc(Nc2cn(CC(F)(F)F)c(CC#N)n2)cc1-c1nnco1

>  <csv_name>  (25) 
green_site_rna_tunnel_fstein_bulkdock_input_split1000_batch000.csv

>  <ref_mols>  (25) 
d0378a,d0411a

>  <distance_score>  (25) 
0.872845

>  <SLURM_JOB_ID>  (25) 
217965

>  <original ID>  (25) 
MWMZDMJMTUQLQG-UHFFFAOYSA-N

>  <HIPPO Pose ID>  (25) 
81841

>  <scratch_subdir>  (25) 
/opt/xchem-fragalysis-2/maxwin/BulkDock/SCRATCH/217965/C66449-P37

>  <fragmenstein_runtime>  (25) 
3.980638

>  <HIPPO Compound ID>  (25) 
66449

>  <fragmenstein_outcome>  (25) 
acceptable

$$$$
82159
     RDKit          3D

 20 21  0  0  0  0  0  0  0  0999 V2000
  -25.4164  -32.5842  -19.6992 C   0  0  0  0  0  0  0  0  0  0  0  0
  -25.7497  -31.2811  -19.2449 N   0  0  0  0  0  0  0  0  0  0  0  0
  -26.4575  -30.1146  -19.9727 C   0  0  0  0  0  0  0  0  0  0  0  0
  -26.8064  -30.0166  -21.0789 O   0  0  0  0  0  0  0  0  0  0  0  0
  -26.7662  -29.0509  -18.9675 C   0  0  0  0  0  0  0  0  0  0  0  0
  -25.6606  -28.2589  -18.6921 C   0  0  0  0  0  0  0  0  0  0  0  0
  -24.9893  -27.2584  -19.9688 S   0  0  0  0  0  0  0  0  0  0  0  0
  -25.0639  -25.7447  -19.2589 N   0  0  0  0  0  0  0  0  0  0  0  0
  -23.5862  -27.5863  -20.1183 O   0  0  0  0  0  0  0  0  0  0  0  0
  -25.8864  -27.1824  -21.0895 O   0  0  0  0  0  0  0  0  0  0  0  0
  -25.1200  -28.2531  -17.4117 C   0  0  0  0  0  0  0  0  0  0  0  0
  -25.7245  -29.0091  -16.4009 C   0  0  0  0  0  0  0  0  0  0  0  0
  -24.9970  -29.2184  -15.1009 C   0  0  0  0  0  0  0  0  0  0  0  0
  -27.0074  -29.5538  -16.6370 C   0  0  0  0  0  0  0  0  0  0  0  0
  -27.5938  -29.5103  -17.9255 C   0  0  0  0  0  0  0  0  0  0  0  0
  -28.8878  -29.9680  -18.1363 N   0  0  0  0  0  0  0  0  0  0  0  0
  -29.4611  -30.0765  -19.4814 C   0  0  0  0  0  0  0  0  0  0  0  0
  -29.7935  -30.2639  -17.0304 C   0  0  0  0  0  0  0  0  0  0  0  0
  -29.2190  -29.9150  -15.6733 C   0  0  0  0  0  0  0  0  0  0  0  0
  -27.7607  -30.2993  -15.5631 C   0  0  0  0  0  0  0  0  0  0  0  0
  1  2  1  0
  2  3  1  0
  3  4  2  0
  3  5  1  0
  5  6  2  0
  6  7  1  0
  7  8  1  0
  7  9  2  0
  7 10  2  0
  6 11  1  0
 11 12  2  0
 12 13  1  0
 12 14  1  0
 14 15  2  0
 15 16  1  0
 16 17  1  0
 16 18  1  0
 18 19  1  0
 19 20  1  0
 15  5  1  0
 20 14  1  0
M  END
>  <inchikey>  (26) 
KHYQMJRZKVXHMV-UHFFFAOYSA-N

>  <fragmenstein_mode>  (26) 
expansion

>  <exports>  (26) 
['/opt/xchem-fragalysis-2/maxwin/BulkDock/OUTPUTS/green_site_rna_tunnel_fstein_bulkdock_input_split1000_batch000_217965.sdf']

>  <name>  (26) 
KHYQMJRZKVXHMV-UHFFFAOYSA-N

>  <ref_pdb>  (26) 
z0165a

>  <alias>  (26) 
None

>  <energy_score>  (26) 
-37.159042

>  <SLURM_JOB_NAME>  (26) 
BulkDock.place:Flavi_NS5_RdRp:green_site_rna_tunnel_fstein_bulkdock_input_split1000_batch000

>  <tags>  (26) 
['Fragmenstein placed']

>  <fragmenstein_error>  (26) 
None

>  <original SMILES>  (26) 
CNC(=O)c1c(S(N)(=O)=O)cc(C)c2c1N(C)CCC2

>  <csv_name>  (26) 
green_site_rna_tunnel_fstein_bulkdock_input_split1000_batch000.csv

>  <ref_mols>  (26) 
z0165a,d0472b

>  <distance_score>  (26) 
0.790667

>  <SLURM_JOB_ID>  (26) 
217965

>  <original ID>  (26) 
KHYQMJRZKVXHMV-UHFFFAOYSA-N

>  <HIPPO Pose ID>  (26) 
82159

>  <scratch_subdir>  (26) 
/opt/xchem-fragalysis-2/maxwin/BulkDock/SCRATCH/217965/C66487-P3

>  <fragmenstein_runtime>  (26) 
4.813134

>  <HIPPO Compound ID>  (26) 
66487

>  <fragmenstein_outcome>  (26) 
acceptable

$$$$
82168
     RDKit          3D

 20 21  0  0  0  0  0  0  0  0999 V2000
  -29.1487  -30.3823  -22.3000 C   0  0  0  0  0  0  0  0  0  0  0  0
  -30.1106  -29.3870  -21.6427 C   0  0  0  0  0  0  0  0  0  0  0  0
  -29.3469  -28.7565  -20.5018 C   0  0  0  0  0  0  0  0  0  0  0  0
  -28.8279  -27.7192  -20.5229 O   0  0  0  0  0  0  0  0  0  0  0  0
  -29.3561  -29.8390  -19.4214 N   0  0  0  0  0  0  0  0  0  0  0  0
  -28.6464  -29.9186  -18.1657 C   0  0  2  0  0  0  0  0  0  0  0  0
  -28.1382  -31.3199  -18.3289 C   0  0  0  0  0  0  0  0  0  0  0  0
  -29.5507  -29.7600  -16.9420 C   0  0  0  0  0  0  0  0  0  0  0  0
  -28.8836  -30.2616  -15.6638 C   0  0  0  0  0  0  0  0  0  0  0  0
  -27.4587  -29.7423  -15.4675 C   0  0  0  0  0  0  0  0  0  0  0  0
  -26.7676  -29.1638  -16.6833 C   0  0  0  0  0  0  0  0  0  0  0  0
  -25.4988  -28.6064  -16.5204 C   0  0  0  0  0  0  0  0  0  0  0  0
  -24.8813  -27.9484  -17.5829 C   0  0  0  0  0  0  0  0  0  0  0  0
  -25.4494  -27.9781  -18.8462 C   0  0  0  0  0  0  0  0  0  0  0  0
  -24.7216  -27.1206  -20.2003 S   0  0  0  0  0  0  0  0  0  0  0  0
  -24.8728  -25.5249  -19.7406 N   0  0  0  0  0  0  0  0  0  0  0  0
  -23.3173  -27.4677  -20.2568 O   0  0  0  0  0  0  0  0  0  0  0  0
  -25.5548  -27.2543  -21.3699 O   0  0  0  0  0  0  0  0  0  0  0  0
  -26.6102  -28.6895  -19.0492 C   0  0  0  0  0  0  0  0  0  0  0  0
  -27.3439  -29.1855  -17.9710 C   0  0  0  0  0  0  0  0  0  0  0  0
  1  2  1  0
  2  3  1  0
  3  4  2  0
  3  5  1  0
  5  6  1  0
  6  7  1  1
  6  8  1  0
  8  9  1  0
  9 10  1  0
 10 11  1  0
 11 12  2  0
 12 13  1  0
 13 14  2  0
 14 15  1  0
 15 16  1  0
 15 17  2  0
 15 18  2  0
 14 19  1  0
 19 20  2  0
 20  6  1  0
 20 11  1  0
M  END
>  <inchikey>  (27) 
AXKNOWQQADSYEI-CQSZACIVSA-N

>  <fragmenstein_mode>  (27) 
expansion

>  <exports>  (27) 
['/opt/xchem-fragalysis-2/maxwin/BulkDock/OUTPUTS/green_site_rna_tunnel_fstein_bulkdock_input_split1000_batch000_217965.sdf']

>  <name>  (27) 
AXKNOWQQADSYEI-CQSZACIVSA-N

>  <ref_pdb>  (27) 
z0165a

>  <alias>  (27) 
None

>  <energy_score>  (27) 
-44.251392

>  <SLURM_JOB_NAME>  (27) 
BulkDock.place:Flavi_NS5_RdRp:green_site_rna_tunnel_fstein_bulkdock_input_split1000_batch000

>  <tags>  (27) 
['Fragmenstein placed']

>  <fragmenstein_error>  (27) 
None

>  <original SMILES>  (27) 
CCC(=O)N[C@]1(C)CCCc2ccc(S(N)(=O)=O)cc21

>  <csv_name>  (27) 
green_site_rna_tunnel_fstein_bulkdock_input_split1000_batch000.csv

>  <ref_mols>  (27) 
z0165a,z0111a

>  <distance_score>  (27) 
0.827759

>  <SLURM_JOB_ID>  (27) 
217965

>  <original ID>  (27) 
AXKNOWQQADSYEI-CQSZACIVSA-N

>  <HIPPO Pose ID>  (27) 
82168

>  <scratch_subdir>  (27) 
/opt/xchem-fragalysis-2/maxwin/BulkDock/SCRATCH/217965/C66491-P3

>  <fragmenstein_runtime>  (27) 
6.14796

>  <HIPPO Compound ID>  (27) 
66491

>  <fragmenstein_outcome>  (27) 
acceptable

$$$$
82202
     RDKit          3D

 21 23  0  0  0  0  0  0  0  0999 V2000
  -27.5773  -30.6493  -22.7440 C   0  0  0  0  0  0  0  0  0  0  0  0
  -27.8829  -31.2293  -21.3735 C   0  0  1  0  0  0  0  0  0  0  0  0
  -26.6238  -31.2035  -20.6359 N   0  0  0  0  0  0  0  0  0  0  0  0
  -29.2299  -30.6460  -20.7812 C   0  0  2  0  0  0  0  0  0  0  0  0
  -29.3786  -29.4013  -19.9119 C   0  0  0  0  0  0  0  0  0  0  0  0
  -28.8613  -29.7966  -18.5095 C   0  0  2  0  0  0  0  0  0  0  0  0
  -29.6545  -29.4266  -17.2413 C   0  0  0  0  0  0  0  0  0  0  0  0
  -29.1084  -30.1145  -15.9653 C   0  0  0  0  0  0  0  0  0  0  0  0
  -27.5917  -30.3587  -15.9572 C   0  0  0  0  0  0  0  0  0  0  0  0
  -26.8622  -29.5133  -16.9699 C   0  0  0  0  0  0  0  0  0  0  0  0
  -25.6075  -28.9659  -16.6801 C   0  0  0  0  0  0  0  0  0  0  0  0
  -24.9605  -28.1523  -17.6151 C   0  0  0  0  0  0  0  0  0  0  0  0
  -25.5428  -27.9218  -18.8532 C   0  0  0  0  0  0  0  0  0  0  0  0
  -24.7172  -27.0471  -20.1468 S   0  0  0  0  0  0  0  0  0  0  0  0
  -24.7835  -25.4740  -19.6288 N   0  0  0  0  0  0  0  0  0  0  0  0
  -23.3411  -27.4864  -20.1899 O   0  0  0  0  0  0  0  0  0  0  0  0
  -25.5457  -27.0979  -21.3283 O   0  0  0  0  0  0  0  0  0  0  0  0
  -26.7807  -28.4620  -19.1396 C   0  0  0  0  0  0  0  0  0  0  0  0
  -27.4552  -29.2787  -18.2253 C   0  0  0  0  0  0  0  0  0  0  0  0
  -29.0215  -31.2524  -18.5780 N   0  0  0  0  0  0  0  0  0  0  0  0
  -29.7771  -31.5259  -19.7605 N   0  0  0  0  0  0  0  0  0  0  0  0
  2  1  1  6
  2  3  1  0
  2  4  1  0
  4  5  1  1
  6  5  1  6
  6  7  1  0
  7  8  1  0
  8  9  1  0
  9 10  1  0
 10 11  2  0
 11 12  1  0
 12 13  2  0
 13 14  1  0
 14 15  1  0
 14 16  2  0
 14 17  2  0
 13 18  1  0
 18 19  2  0
  6 20  1  0
 20 21  1  0
 21  4  1  0
 19  6  1  0
 19 10  1  0
M  END
>  <inchikey>  (28) 
TXUONUYWZFHURV-BIGNPOOSSA-N

>  <fragmenstein_mode>  (28) 
expansion

>  <exports>  (28) 
['/opt/xchem-fragalysis-2/maxwin/BulkDock/OUTPUTS/green_site_rna_tunnel_fstein_bulkdock_input_split1000_batch000_217965.sdf']

>  <name>  (28) 
TXUONUYWZFHURV-BIGNPOOSSA-N

>  <ref_pdb>  (28) 
z0165a

>  <alias>  (28) 
None

>  <energy_score>  (28) 
-15.596891

>  <SLURM_JOB_NAME>  (28) 
BulkDock.place:Flavi_NS5_RdRp:green_site_rna_tunnel_fstein_bulkdock_input_split1000_batch000

>  <tags>  (28) 
['Fragmenstein placed']

>  <fragmenstein_error>  (28) 
None

>  <original SMILES>  (28) 
C[C@@H](N)[C@@H]1C[C@@]2(CCCc3ccc(S(N)(=O)=O)cc32)NN1

>  <csv_name>  (28) 
green_site_rna_tunnel_fstein_bulkdock_input_split1000_batch000.csv

>  <ref_mols>  (28) 
z0165a,z0628a

>  <distance_score>  (28) 
0.967544

>  <SLURM_JOB_ID>  (28) 
217965

>  <original ID>  (28) 
TXUONUYWZFHURV-BIGNPOOSSA-N

>  <HIPPO Pose ID>  (28) 
82202

>  <scratch_subdir>  (28) 
/opt/xchem-fragalysis-2/maxwin/BulkDock/SCRATCH/217965/C66505-P3

>  <fragmenstein_runtime>  (28) 
2.993948

>  <HIPPO Compound ID>  (28) 
66505

>  <fragmenstein_outcome>  (28) 
acceptable

$$$$
82203
     RDKit          3D

 21 23  0  0  0  0  0  0  0  0999 V2000
  -25.7583  -29.9180  -22.1839 C   0  0  0  0  0  0  0  0  0  0  0  0
  -26.3831  -31.2511  -21.8110 C   0  0  1  0  0  0  0  0  0  0  0  0
  -25.5523  -32.3791  -22.2205 N   0  0  0  0  0  0  0  0  0  0  0  0
  -26.8572  -31.2980  -20.3636 C   0  0  1  0  0  0  0  0  0  0  0  0
  -28.3180  -30.8975  -20.0871 C   0  0  0  0  0  0  0  0  0  0  0  0
  -28.2944  -30.9265  -18.5616 C   0  0  2  0  0  0  0  0  0  0  0  0
  -29.6107  -30.9904  -17.7909 C   0  0  0  0  0  0  0  0  0  0  0  0
  -29.4331  -30.7977  -16.2581 C   0  0  0  0  0  0  0  0  0  0  0  0
  -27.9862  -30.5886  -15.7544 C   0  0  0  0  0  0  0  0  0  0  0  0
  -27.2104  -29.6904  -16.6810 C   0  0  0  0  0  0  0  0  0  0  0  0
  -26.1726  -28.8713  -16.2666 C   0  0  0  0  0  0  0  0  0  0  0  0
  -25.5924  -27.9812  -17.1778 C   0  0  0  0  0  0  0  0  0  0  0  0
  -26.0106  -27.9222  -18.4979 C   0  0  0  0  0  0  0  0  0  0  0  0
  -25.2031  -26.9179  -19.7031 S   0  0  0  0  0  0  0  0  0  0  0  0
  -25.3370  -25.4610  -18.9602 N   0  0  0  0  0  0  0  0  0  0  0  0
  -23.8165  -27.3157  -19.7479 O   0  0  0  0  0  0  0  0  0  0  0  0
  -25.9992  -26.8726  -20.9046 O   0  0  0  0  0  0  0  0  0  0  0  0
  -27.0588  -28.7045  -18.8958 C   0  0  0  0  0  0  0  0  0  0  0  0
  -27.5407  -29.7031  -18.0379 C   0  0  0  0  0  0  0  0  0  0  0  0
  -27.5151  -32.2063  -18.3444 N   0  0  0  0  0  0  0  0  0  0  0  0
  -26.8697  -32.5632  -19.6265 N   0  0  0  0  0  0  0  0  0  0  0  0
  2  1  1  1
  2  3  1  0
  2  4  1  0
  4  5  1  6
  6  5  1  6
  6  7  1  0
  7  8  1  0
  8  9  1  0
  9 10  1  0
 10 11  2  0
 11 12  1  0
 12 13  2  0
 13 14  1  0
 14 15  1  0
 14 16  2  0
 14 17  2  0
 13 18  1  0
 18 19  2  0
  6 20  1  0
 20 21  1  0
 21  4  1  0
 19  6  1  0
 19 10  1  0
M  END
>  <inchikey>  (29) 
TXUONUYWZFHURV-OWYVNGRQSA-N

>  <fragmenstein_mode>  (29) 
expansion

>  <exports>  (29) 
['/opt/xchem-fragalysis-2/maxwin/BulkDock/OUTPUTS/green_site_rna_tunnel_fstein_bulkdock_input_split1000_batch000_217965.sdf']

>  <name>  (29) 
TXUONUYWZFHURV-OWYVNGRQSA-N

>  <ref_pdb>  (29) 
z0628a

>  <alias>  (29) 
None

>  <energy_score>  (29) 
-15.55155

>  <SLURM_JOB_NAME>  (29) 
BulkDock.place:Flavi_NS5_RdRp:green_site_rna_tunnel_fstein_bulkdock_input_split1000_batch000

>  <tags>  (29) 
['Fragmenstein placed']

>  <fragmenstein_error>  (29) 
None

>  <original SMILES>  (29) 
C[C@@H](N)[C@H]1C[C@@]2(CCCc3ccc(S(N)(=O)=O)cc32)NN1

>  <csv_name>  (29) 
green_site_rna_tunnel_fstein_bulkdock_input_split1000_batch000.csv

>  <ref_mols>  (29) 
z0165a,z0628a

>  <distance_score>  (29) 
0.968602

>  <SLURM_JOB_ID>  (29) 
217965

>  <original ID>  (29) 
TXUONUYWZFHURV-OWYVNGRQSA-N

>  <HIPPO Pose ID>  (29) 
82203

>  <scratch_subdir>  (29) 
/opt/xchem-fragalysis-2/maxwin/BulkDock/SCRATCH/217965/C66505-P150

>  <fragmenstein_runtime>  (29) 
2.879597

>  <HIPPO Compound ID>  (29) 
66505

>  <fragmenstein_outcome>  (29) 
acceptable

$$$$
82272
     RDKit          3D

 19 20  0  0  0  0  0  0  0  0999 V2000
  -29.2929  -29.5662  -21.6407 C   0  0  0  0  0  0  0  0  0  0  0  0
  -28.0160  -30.1721  -21.1090 C   0  0  0  0  0  0  0  0  0  0  0  0
  -27.2331  -30.6845  -22.0110 N   0  0  0  0  0  0  0  0  0  0  0  0
  -26.1240  -31.3739  -21.6779 N   0  0  0  0  0  0  0  0  0  0  0  0
  -25.0973  -31.5029  -22.6852 C   0  0  0  0  0  0  0  0  0  0  0  0
  -23.8879  -32.2694  -22.1561 C   0  0  1  0  0  0  0  0  0  0  0  0
  -22.9072  -32.5606  -23.2797 C   0  0  0  0  0  0  0  0  0  0  0  0
  -23.2326  -31.5133  -21.1389 O   0  0  0  0  0  0  0  0  0  0  0  0
  -27.8127  -30.1156  -19.6343 C   0  0  0  0  0  0  0  0  0  0  0  0
  -28.9177  -30.1919  -18.7923 C   0  0  0  0  0  0  0  0  0  0  0  0
  -28.7270  -30.2353  -17.4151 C   0  0  0  0  0  0  0  0  0  0  0  0
  -30.2364  -30.2732  -16.3140 Br  0  0  0  0  0  0  0  0  0  0  0  0
  -27.4556  -30.3044  -16.8433 C   0  0  0  0  0  0  0  0  0  0  0  0
  -26.3558  -30.1616  -17.6936 C   0  0  0  0  0  0  0  0  0  0  0  0
  -26.5403  -30.0050  -19.0690 C   0  0  0  0  0  0  0  0  0  0  0  0
  -24.9740  -30.3118  -17.1271 C   0  0  0  0  0  0  0  0  0  0  0  0
  -25.0784  -31.3897  -16.0578 C   0  0  0  0  0  0  0  0  0  0  0  0
  -25.9993  -30.8988  -14.9499 C   0  0  0  0  0  0  0  0  0  0  0  0
  -27.2908  -30.4536  -15.4575 N   0  0  0  0  0  0  0  0  0  0  0  0
  1  2  1  0
  2  3  2  3
  3  4  1  0
  4  5  1  0
  5  6  1  0
  6  7  1  6
  6  8  1  0
  2  9  1  0
  9 10  2  0
 10 11  1  0
 11 12  1  0
 11 13  2  0
 13 14  1  0
 14 15  2  0
 14 16  1  0
 16 17  1  0
 17 18  1  0
 18 19  1  0
 15  9  1  0
 19 13  1  0
M  END
>  <inchikey>  (30) 
BLSOXVFBZIGOKI-SECBINFHSA-N

>  <fragmenstein_mode>  (30) 
expansion

>  <exports>  (30) 
['/opt/xchem-fragalysis-2/maxwin/BulkDock/OUTPUTS/green_site_rna_tunnel_fstein_bulkdock_input_split1000_batch000_217965.sdf']

>  <name>  (30) 
BLSOXVFBZIGOKI-SECBINFHSA-N

>  <ref_pdb>  (30) 
z0904a

>  <alias>  (30) 
None

>  <energy_score>  (30) 
-60.57417

>  <SLURM_JOB_NAME>  (30) 
BulkDock.place:Flavi_NS5_RdRp:green_site_rna_tunnel_fstein_bulkdock_input_split1000_batch000

>  <tags>  (30) 
['Fragmenstein placed']

>  <fragmenstein_error>  (30) 
None

>  <original SMILES>  (30) 
CC(=NNC[C@@H](C)O)c1cc(Br)c2c(c1)CCCN2

>  <csv_name>  (30) 
green_site_rna_tunnel_fstein_bulkdock_input_split1000_batch000.csv

>  <ref_mols>  (30) 
z0904a,z0211a

>  <distance_score>  (30) 
0.829814

>  <SLURM_JOB_ID>  (30) 
217965

>  <original ID>  (30) 
BLSOXVFBZIGOKI-SECBINFHSA-N

>  <HIPPO Pose ID>  (30) 
82272

>  <scratch_subdir>  (30) 
/opt/xchem-fragalysis-2/maxwin/BulkDock/SCRATCH/217965/C66531-P7

>  <fragmenstein_runtime>  (30) 
2.810551

>  <HIPPO Compound ID>  (30) 
66531

>  <fragmenstein_outcome>  (30) 
acceptable

$$$$
82273
     RDKit          3D

 19 20  0  0  0  0  0  0  0  0999 V2000
  -29.1708  -29.3010  -21.5222 C   0  0  0  0  0  0  0  0  0  0  0  0
  -27.9426  -30.0056  -21.0047 C   0  0  0  0  0  0  0  0  0  0  0  0
  -27.2027  -30.5896  -21.8943 N   0  0  0  0  0  0  0  0  0  0  0  0
  -26.1106  -31.3200  -21.5681 N   0  0  0  0  0  0  0  0  0  0  0  0
  -25.1115  -31.4442  -22.6142 C   0  0  0  0  0  0  0  0  0  0  0  0
  -23.8518  -32.1746  -22.1569 C   0  0  1  0  0  0  0  0  0  0  0  0
  -23.0419  -32.6430  -23.3553 C   0  0  0  0  0  0  0  0  0  0  0  0
  -23.0311  -31.3086  -21.3802 O   0  0  0  0  0  0  0  0  0  0  0  0
  -27.7333  -29.9241  -19.5491 C   0  0  0  0  0  0  0  0  0  0  0  0
  -28.8519  -29.9286  -18.7318 C   0  0  0  0  0  0  0  0  0  0  0  0
  -28.6943  -29.9176  -17.3561 C   0  0  0  0  0  0  0  0  0  0  0  0
  -30.2697  -30.0703  -16.3671 Br  0  0  0  0  0  0  0  0  0  0  0  0
  -27.4350  -29.9600  -16.7511 C   0  0  0  0  0  0  0  0  0  0  0  0
  -26.3197  -29.9400  -17.5955 C   0  0  0  0  0  0  0  0  0  0  0  0
  -26.4689  -29.8448  -18.9798 C   0  0  0  0  0  0  0  0  0  0  0  0
  -24.9465  -30.0758  -17.0126 C   0  0  0  0  0  0  0  0  0  0  0  0
  -24.9864  -31.0222  -15.8276 C   0  0  0  0  0  0  0  0  0  0  0  0
  -25.9975  -30.5246  -14.8138 C   0  0  0  0  0  0  0  0  0  0  0  0
  -27.2956  -30.2492  -15.4005 N   0  0  0  0  0  0  0  0  0  0  0  0
  1  2  1  0
  2  3  2  3
  3  4  1  0
  4  5  1  0
  5  6  1  0
  6  7  1  6
  6  8  1  0
  2  9  1  0
  9 10  2  0
 10 11  1  0
 11 12  1  0
 11 13  2  0
 13 14  1  0
 14 15  2  0
 14 16  1  0
 16 17  1  0
 17 18  1  0
 18 19  1  0
 15  9  1  0
 19 13  1  0
M  END
>  <inchikey>  (31) 
BLSOXVFBZIGOKI-SECBINFHSA-N

>  <fragmenstein_mode>  (31) 
expansion

>  <exports>  (31) 
['/opt/xchem-fragalysis-2/maxwin/BulkDock/OUTPUTS/green_site_rna_tunnel_fstein_bulkdock_input_split1000_batch000_217965.sdf']

>  <name>  (31) 
BLSOXVFBZIGOKI-SECBINFHSA-N

>  <ref_pdb>  (31) 
z0211a

>  <alias>  (31) 
None

>  <energy_score>  (31) 
-59.884753

>  <SLURM_JOB_NAME>  (31) 
BulkDock.place:Flavi_NS5_RdRp:green_site_rna_tunnel_fstein_bulkdock_input_split1000_batch000

>  <tags>  (31) 
['Fragmenstein placed']

>  <fragmenstein_error>  (31) 
None

>  <original SMILES>  (31) 
CC(=NNC[C@@H](C)O)c1cc(Br)c2c(c1)CCCN2

>  <csv_name>  (31) 
green_site_rna_tunnel_fstein_bulkdock_input_split1000_batch000.csv

>  <ref_mols>  (31) 
z0904a,z0211a

>  <distance_score>  (31) 
0.785799

>  <SLURM_JOB_ID>  (31) 
217965

>  <original ID>  (31) 
BLSOXVFBZIGOKI-SECBINFHSA-N

>  <HIPPO Pose ID>  (31) 
82273

>  <scratch_subdir>  (31) 
/opt/xchem-fragalysis-2/maxwin/BulkDock/SCRATCH/217965/C66531-P102

>  <fragmenstein_runtime>  (31) 
2.662571

>  <HIPPO Compound ID>  (31) 
66531

>  <fragmenstein_outcome>  (31) 
acceptable

$$$$
82370
     RDKit          3D

 15 15  0  0  0  0  0  0  0  0999 V2000
  -27.3171  -30.1661  -21.5240 C   0  0  0  0  0  0  0  0  0  0  0  0
  -28.3909  -29.4194  -20.7362 C   0  0  0  0  0  0  0  0  0  0  0  0
  -28.8490  -30.0934  -19.6054 O   0  0  0  0  0  0  0  0  0  0  0  0
  -28.1597  -30.0222  -18.3827 C   0  0  1  0  0  0  0  0  0  0  0  0
  -29.2496  -30.2859  -17.4539 N   0  0  0  0  0  0  0  0  0  0  0  0
  -29.4225  -29.1984  -16.5298 O   0  0  0  0  0  0  0  0  0  0  0  0
  -27.1059  -31.1413  -18.3780 C   0  0  0  0  0  0  0  0  0  0  0  0
  -25.7595  -30.4895  -18.7055 C   0  0  0  0  0  0  0  0  0  0  0  0
  -25.9950  -28.9893  -18.8031 C   0  0  2  0  0  0  0  0  0  0  0  0
  -24.9018  -28.2380  -18.1773 N   0  0  0  0  0  0  0  0  0  0  0  0
  -23.9077  -27.2773  -19.1382 S   0  0  0  0  0  0  0  0  0  0  0  0
  -24.1125  -25.7289  -18.3108 C   0  0  0  0  0  0  0  0  0  0  0  0
  -22.5614  -27.7606  -18.9122 O   0  0  0  0  0  0  0  0  0  0  0  0
  -24.4686  -27.1519  -20.4627 O   0  0  0  0  0  0  0  0  0  0  0  0
  -27.3206  -28.7515  -18.0914 C   0  0  0  0  0  0  0  0  0  0  0  0
  1  2  1  0
  2  3  1  0
  3  4  1  0
  4  5  1  1
  5  6  1  0
  4  7  1  0
  7  8  1  0
  8  9  1  0
  9 10  1  1
 10 11  1  0
 11 12  1  0
 11 13  2  0
 11 14  2  0
  9 15  1  0
 15  4  1  0
M  END
>  <inchikey>  (32) 
CWYJXDBYJJQAJB-YUMQZZPRSA-N

>  <fragmenstein_mode>  (32) 
expansion

>  <exports>  (32) 
['/opt/xchem-fragalysis-2/maxwin/BulkDock/OUTPUTS/green_site_rna_tunnel_fstein_bulkdock_input_split1000_batch000_217965.sdf']

>  <name>  (32) 
CWYJXDBYJJQAJB-YUMQZZPRSA-N

>  <ref_pdb>  (32) 
d0172a

>  <alias>  (32) 
None

>  <energy_score>  (32) 
-35.425814

>  <SLURM_JOB_NAME>  (32) 
BulkDock.place:Flavi_NS5_RdRp:green_site_rna_tunnel_fstein_bulkdock_input_split1000_batch000

>  <tags>  (32) 
['Fragmenstein placed']

>  <fragmenstein_error>  (32) 
None

>  <original SMILES>  (32) 
CCO[C@@]1(NO)CC[C@H](NS(C)(=O)=O)C1

>  <csv_name>  (32) 
green_site_rna_tunnel_fstein_bulkdock_input_split1000_batch000.csv

>  <ref_mols>  (32) 
d0172a,z0351a

>  <distance_score>  (32) 
0.972124

>  <SLURM_JOB_ID>  (32) 
217965

>  <original ID>  (32) 
CWYJXDBYJJQAJB-YUMQZZPRSA-N

>  <HIPPO Pose ID>  (32) 
82370

>  <scratch_subdir>  (32) 
/opt/xchem-fragalysis-2/maxwin/BulkDock/SCRATCH/217965/C66575-P16

>  <fragmenstein_runtime>  (32) 
2.947793

>  <HIPPO Compound ID>  (32) 
66575

>  <fragmenstein_outcome>  (32) 
acceptable

$$$$
82379
     RDKit          3D

 18 19  0  0  0  0  0  0  0  0999 V2000
  -25.4870  -31.7457  -18.1615 C   0  0  0  0  0  0  0  0  0  0  0  0
  -26.4010  -31.5581  -19.3440 C   0  0  2  0  0  0  0  0  0  0  0  0
  -25.8766  -32.3029  -20.5394 C   0  0  0  0  0  0  0  0  0  0  0  0
  -25.3659  -33.4091  -20.5242 O   0  0  0  0  0  0  0  0  0  0  0  0
  -26.0342  -31.5398  -21.6419 N   0  0  0  0  0  0  0  0  0  0  0  0
  -26.3091  -30.2561  -21.3457 C   0  0  0  0  0  0  0  0  0  0  0  0
  -26.2486  -29.3442  -22.1474 O   0  0  0  0  0  0  0  0  0  0  0  0
  -26.7001  -30.1396  -19.8920 C   0  0  1  0  0  0  0  0  0  0  0  0
  -28.2240  -29.8965  -19.8010 C   0  0  0  0  0  0  0  0  0  0  0  0
  -28.4337  -28.9416  -18.6364 C   0  0  1  0  0  0  0  0  0  0  0  0
  -29.4680  -29.6593  -17.3976 Cl  0  0  0  0  0  0  0  0  0  0  0  0
  -27.0586  -28.5861  -18.0956 C   0  0  0  0  0  0  0  0  0  0  0  0
  -26.1648  -28.8252  -19.2951 C   0  0  1  0  0  0  0  0  0  0  0  0
  -24.7460  -28.7947  -18.9345 N   0  0  0  0  0  0  0  0  0  0  0  0
  -23.8396  -27.4181  -19.2968 S   0  0  0  0  0  0  0  0  0  0  0  0
  -24.4147  -26.2417  -18.0962 C   0  0  0  0  0  0  0  0  0  0  0  0
  -22.4710  -27.7524  -18.9619 O   0  0  0  0  0  0  0  0  0  0  0  0
  -24.2161  -26.9418  -20.6043 O   0  0  0  0  0  0  0  0  0  0  0  0
  2  1  1  1
  2  3  1  0
  3  4  2  0
  3  5  1  0
  5  6  1  0
  6  7  2  0
  6  8  1  0
  8  9  1  6
  9 10  1  0
 10 11  1  1
 10 12  1  0
 12 13  1  0
 13 14  1  1
 14 15  1  0
 15 16  1  0
 15 17  2  0
 15 18  2  0
  8  2  1  0
 13  8  1  0
M  END
>  <inchikey>  (33) 
NPAMNZCNIDZWCI-LGVNZDMBSA-N

>  <fragmenstein_mode>  (33) 
expansion

>  <exports>  (33) 
['/opt/xchem-fragalysis-2/maxwin/BulkDock/OUTPUTS/green_site_rna_tunnel_fstein_bulkdock_input_split1000_batch000_217965.sdf']

>  <name>  (33) 
NPAMNZCNIDZWCI-LGVNZDMBSA-N

>  <ref_pdb>  (33) 
d0172a

>  <alias>  (33) 
None

>  <energy_score>  (33) 
-62.907431

>  <SLURM_JOB_NAME>  (33) 
BulkDock.place:Flavi_NS5_RdRp:green_site_rna_tunnel_fstein_bulkdock_input_split1000_batch000

>  <tags>  (33) 
['Fragmenstein placed']

>  <fragmenstein_error>  (33) 
None

>  <original SMILES>  (33) 
C[C@@H]1C(=O)NC(=O)[C@@]12C[C@@H](Cl)C[C@H]2NS(C)(=O)=O

>  <csv_name>  (33) 
green_site_rna_tunnel_fstein_bulkdock_input_split1000_batch000.csv

>  <ref_mols>  (33) 
d0172a,z0480a

>  <distance_score>  (33) 
0.860238

>  <SLURM_JOB_ID>  (33) 
217965

>  <original ID>  (33) 
NPAMNZCNIDZWCI-LGVNZDMBSA-N

>  <HIPPO Pose ID>  (33) 
82379

>  <scratch_subdir>  (33) 
/opt/xchem-fragalysis-2/maxwin/BulkDock/SCRATCH/217965/C66580-P16

>  <fragmenstein_runtime>  (33) 
2.895712

>  <HIPPO Compound ID>  (33) 
66580

>  <fragmenstein_outcome>  (33) 
acceptable

$$$$
82381
     RDKit          3D

 17 19  0  0  0  0  0  0  0  0999 V2000
  -24.0453  -25.8844  -18.4370 C   0  0  0  0  0  0  0  0  0  0  0  0
  -23.5671  -27.1522  -19.5829 S   0  0  0  0  0  0  0  0  0  0  0  0
  -22.1828  -27.4843  -19.3302 O   0  0  0  0  0  0  0  0  0  0  0  0
  -24.0551  -26.7911  -20.8907 O   0  0  0  0  0  0  0  0  0  0  0  0
  -24.4450  -28.4677  -19.0683 N   0  0  0  0  0  0  0  0  0  0  0  0
  -25.8565  -28.4052  -19.3969 C   0  0  1  0  0  0  0  0  0  0  0  0
  -26.3879  -29.5149  -20.3195 C   0  0  0  0  0  0  0  0  0  0  0  0
  -25.7697  -29.9876  -21.2655 O   0  0  0  0  0  0  0  0  0  0  0  0
  -27.7275  -30.0522  -19.8186 C   0  0  2  0  0  0  0  0  0  0  0  0
  -29.1191  -29.4476  -20.0603 C   0  0  0  0  0  0  0  0  0  0  0  0
  -29.9095  -29.8499  -18.7730 C   0  0  0  0  0  0  0  0  0  0  0  0
  -28.8836  -29.4455  -17.7981 C   0  0  0  0  0  0  0  0  0  0  0  0
  -29.0162  -28.7617  -16.6382 C   0  0  0  0  0  0  0  0  0  0  0  0
  -27.9561  -27.8913  -16.3009 C   0  0  0  0  0  0  0  0  0  0  0  0
  -26.7974  -27.7646  -17.0724 C   0  0  0  0  0  0  0  0  0  0  0  0
  -26.6912  -28.5687  -18.1759 C   0  0  0  0  0  0  0  0  0  0  0  0
  -27.6770  -29.4852  -18.4343 C   0  0  0  0  0  0  0  0  0  0  0  0
  1  2  1  0
  2  3  2  0
  2  4  2  0
  2  5  1  0
  6  5  1  1
  6  7  1  0
  7  8  2  0
  7  9  1  0
  9 10  1  6
 10 11  1  0
 11 12  1  0
 12 13  2  0
 13 14  1  0
 14 15  2  0
 15 16  1  0
 16 17  2  0
 16  6  1  0
 17  9  1  0
 17 12  1  0
M  END
>  <inchikey>  (34) 
QMVORKGSMRJFMO-MWLCHTKSSA-N

>  <fragmenstein_mode>  (34) 
expansion

>  <exports>  (34) 
['/opt/xchem-fragalysis-2/maxwin/BulkDock/OUTPUTS/green_site_rna_tunnel_fstein_bulkdock_input_split1000_batch000_217965.sdf']

>  <name>  (34) 
QMVORKGSMRJFMO-MWLCHTKSSA-N

>  <ref_pdb>  (34) 
d0172a

>  <alias>  (34) 
None

>  <energy_score>  (34) 
-74.130029

>  <SLURM_JOB_NAME>  (34) 
BulkDock.place:Flavi_NS5_RdRp:green_site_rna_tunnel_fstein_bulkdock_input_split1000_batch000

>  <tags>  (34) 
['Fragmenstein placed']

>  <fragmenstein_error>  (34) 
None

>  <original SMILES>  (34) 
CS(=O)(=O)N[C@H]1C(=O)[C@@H]2CCc3cccc1c32

>  <csv_name>  (34) 
green_site_rna_tunnel_fstein_bulkdock_input_split1000_batch000.csv

>  <ref_mols>  (34) 
d0172a,z0483a

>  <distance_score>  (34) 
0.793535

>  <SLURM_JOB_ID>  (34) 
217965

>  <original ID>  (34) 
QMVORKGSMRJFMO-MWLCHTKSSA-N

>  <HIPPO Pose ID>  (34) 
82381

>  <scratch_subdir>  (34) 
/opt/xchem-fragalysis-2/maxwin/BulkDock/SCRATCH/217965/C66581-P16

>  <fragmenstein_runtime>  (34) 
3.453997

>  <HIPPO Compound ID>  (34) 
66581

>  <fragmenstein_outcome>  (34) 
acceptable

$$$$
82701
     RDKit          3D

 31 34  0  0  0  0  0  0  0  0999 V2000
  -28.5794  -29.7181  -14.3305 C   0  0  0  0  0  0  0  0  0  0  0  0
  -28.2124  -31.0233  -14.7544 O   0  0  0  0  0  0  0  0  0  0  0  0
  -28.0712  -30.8855  -16.0976 C   0  0  0  0  0  0  0  0  0  0  0  0
  -26.8150  -30.5379  -16.5639 C   0  0  0  0  0  0  0  0  0  0  0  0
  -26.7327  -29.9901  -17.8226 C   0  0  0  0  0  0  0  0  0  0  0  0
  -27.8988  -29.7992  -18.5842 C   0  0  0  0  0  0  0  0  0  0  0  0
  -27.8479  -29.0217  -19.8567 C   0  0  0  0  0  0  0  0  0  0  0  0
  -26.7784  -29.5108  -20.8704 C   0  0  0  0  0  0  0  0  0  0  0  0
  -27.0584  -30.6063  -21.8977 C   0  0  2  0  0  0  0  0  0  0  0  0
  -25.7986  -31.1622  -22.6509 C   0  0  0  0  0  0  0  0  0  0  0  0
  -24.5331  -31.6651  -21.9376 C   0  0  0  0  0  0  0  0  0  0  0  0
  -24.4410  -31.8774  -20.5665 C   0  0  0  0  0  0  0  0  0  0  0  0
  -23.1855  -32.0303  -19.9533 C   0  0  0  0  0  0  0  0  0  0  0  0
  -21.9869  -32.0428  -20.6904 C   0  0  0  0  0  0  0  0  0  0  0  0
  -20.7164  -31.9308  -19.9648 C   0  0  0  0  0  0  0  0  0  0  0  0
  -20.4951  -31.8995  -18.6612 N   0  0  0  0  0  0  0  0  0  0  0  0
  -19.1424  -31.6924  -18.4840 N   0  0  0  0  0  0  0  0  0  0  0  0
  -18.6367  -31.5872  -19.6867 C   0  0  0  0  0  0  0  0  0  0  0  0
  -19.5595  -31.6980  -20.6772 O   0  0  0  0  0  0  0  0  0  0  0  0
  -22.0921  -32.0975  -22.0864 C   0  0  0  0  0  0  0  0  0  0  0  0
  -20.9278  -32.2899  -22.7907 O   0  0  0  0  0  0  0  0  0  0  0  0
  -21.0618  -32.8049  -24.1073 C   0  0  0  0  0  0  0  0  0  0  0  0
  -23.3536  -31.8830  -22.6929 C   0  0  0  0  0  0  0  0  0  0  0  0
  -28.0572  -30.0001  -22.7666 N   0  0  0  0  0  0  0  0  0  0  0  0
  -29.2972  -30.0599  -22.1505 C   0  0  0  0  0  0  0  0  0  0  0  0
  -30.2896  -29.4039  -22.3962 O   0  0  0  0  0  0  0  0  0  0  0  0
  -29.2226  -31.0470  -21.2351 N   0  0  0  0  0  0  0  0  0  0  0  0
  -28.0256  -31.6724  -21.4432 C   0  0  0  0  0  0  0  0  0  0  0  0
  -27.8156  -32.8750  -21.4450 O   0  0  0  0  0  0  0  0  0  0  0  0
  -29.1434  -30.2346  -18.1122 C   0  0  0  0  0  0  0  0  0  0  0  0
  -29.2285  -30.8189  -16.8696 C   0  0  0  0  0  0  0  0  0  0  0  0
  1  2  1  0
  2  3  1  0
  3  4  2  0
  4  5  1  0
  5  6  2  0
  6  7  1  0
  7  8  1  0
  9  8  1  1
  9 10  1  0
 10 11  1  0
 11 12  2  0
 12 13  1  0
 13 14  2  0
 14 15  1  0
 15 16  2  0
 16 17  1  0
 17 18  2  0
 18 19  1  0
 14 20  1  0
 20 21  1  0
 21 22  1  0
 20 23  2  0
  9 24  1  0
 24 25  1  0
 25 26  2  0
 25 27  1  0
 27 28  1  0
 28 29  2  0
  6 30  1  0
 30 31  2  0
 31  3  1  0
 28  9  1  0
 23 11  1  0
 19 15  1  0
M  END
>  <inchikey>  (35) 
RTTFALXVCSAOTG-JOCHJYFZSA-N

>  <fragmenstein_mode>  (35) 
expansion

>  <exports>  (35) 
['/opt/xchem-fragalysis-2/maxwin/BulkDock/OUTPUTS/green_site_rna_tunnel_fstein_bulkdock_input_split1000_batch000_217965.sdf']

>  <name>  (35) 
RTTFALXVCSAOTG-JOCHJYFZSA-N

>  <ref_pdb>  (35) 
z0215a

>  <alias>  (35) 
None

>  <energy_score>  (35) 
-3.427163

>  <SLURM_JOB_NAME>  (35) 
BulkDock.place:Flavi_NS5_RdRp:green_site_rna_tunnel_fstein_bulkdock_input_split1000_batch000

>  <tags>  (35) 
['Fragmenstein placed']

>  <fragmenstein_error>  (35) 
None

>  <original SMILES>  (35) 
COc1ccc(CC[C@]2(Cc3ccc(-c4nnco4)c(OC)c3)NC(=O)NC2=O)cc1

>  <csv_name>  (35) 
green_site_rna_tunnel_fstein_bulkdock_input_split1000_batch000.csv

>  <ref_mols>  (35) 
d0411a,z0215a

>  <distance_score>  (35) 
0.964479

>  <SLURM_JOB_ID>  (35) 
217965

>  <original ID>  (35) 
RTTFALXVCSAOTG-JOCHJYFZSA-N

>  <HIPPO Pose ID>  (35) 
82701

>  <scratch_subdir>  (35) 
/opt/xchem-fragalysis-2/maxwin/BulkDock/SCRATCH/217965/C66654-P104

>  <fragmenstein_runtime>  (35) 
5.168155

>  <HIPPO Compound ID>  (35) 
66654

>  <fragmenstein_outcome>  (35) 
acceptable

$$$$
82739
     RDKit          3D

 58 66  0  0  0  0  0  0  0  0999 V2000
  -27.0718  -27.3167  -13.9126 O   0  0  0  0  0  0  0  0  0  0  0  0
  -27.1824  -28.3728  -14.4948 C   0  0  0  0  0  0  0  0  0  0  0  0
  -27.0230  -29.6060  -13.9699 N   0  0  0  0  0  0  0  0  0  0  0  0
  -27.3775  -30.5555  -14.8761 C   0  0  0  0  0  0  0  0  0  0  0  0
  -27.3957  -31.7541  -14.6490 O   0  0  0  0  0  0  0  0  0  0  0  0
  -27.7668  -29.8352  -16.1643 C   0  0  2  0  0  0  0  0  0  0  0  0
  -29.2319  -30.1074  -16.5006 C   0  0  0  0  0  0  0  0  0  0  0  0
  -29.3571  -29.9195  -18.0111 C   0  0  0  0  0  0  0  0  0  0  0  0
  -27.9820  -30.2582  -18.4565 C   0  0  0  0  0  0  0  0  0  0  0  0
  -27.6211  -30.5581  -19.7436 C   0  0  0  0  0  0  0  0  0  0  0  0
  -26.3179  -30.9488  -19.9820 C   0  0  0  0  0  0  0  0  0  0  0  0
  -25.3888  -30.9235  -18.9400 C   0  0  0  0  0  0  0  0  0  0  0  0
  -25.7086  -30.4574  -17.6554 C   0  0  0  0  0  0  0  0  0  0  0  0
  -24.7357  -30.1347  -16.7031 N   0  0  0  0  0  0  0  0  0  0  0  0
  -23.3330  -30.0790  -16.7980 C   0  0  0  0  0  0  0  0  0  0  0  0
  -22.6552  -29.9010  -18.0130 C   0  0  0  0  0  0  0  0  0  0  0  0
  -21.2866  -30.1163  -18.1022 C   0  0  0  0  0  0  0  0  0  0  0  0
  -20.5176  -30.1059  -19.2103 O   0  0  0  0  0  0  0  0  0  0  0  0
  -21.0393  -29.8828  -20.4983 C   0  0  0  0  0  0  0  0  0  0  0  0
  -21.4691  -31.2105  -21.1251 C   0  0  0  0  0  0  0  0  0  0  0  0
  -21.7265  -31.0679  -22.6190 C   0  0  0  0  0  0  0  0  0  0  0  0
  -20.5110  -30.4699  -23.3185 C   0  0  0  0  0  0  0  0  0  0  0  0
  -20.1455  -29.1226  -22.7244 C   0  0  0  0  0  0  0  0  0  0  0  0
  -19.8554  -29.2692  -21.2484 C   0  0  0  0  0  0  0  0  0  0  0  0
  -20.5509  -30.4131  -16.9665 C   0  0  0  0  0  0  0  0  0  0  0  0
  -21.1870  -30.4924  -15.7473 C   0  0  0  0  0  0  0  0  0  0  0  0
  -22.5594  -30.2906  -15.6577 C   0  0  0  0  0  0  0  0  0  0  0  0
  -23.1126  -30.3959  -13.9671 S   0  0  0  0  0  0  0  0  0  0  0  0
  -21.4807  -30.7512  -13.4394 C   0  0  0  0  0  0  0  0  0  0  0  0
  -21.0789  -31.0616  -12.1953 C   0  0  0  0  0  0  0  0  0  0  0  0
  -22.1522  -31.4321  -11.2282 C   0  0  0  0  0  0  0  0  0  0  0  0
  -22.8384  -30.6900  -10.6559 O   0  0  0  0  0  0  0  0  0  0  0  0
  -22.1686  -32.9668  -11.2785 N   0  0  0  0  0  0  0  0  0  0  0  0
  -23.0980  -33.9154  -10.7070 C   0  0  1  0  0  0  0  0  0  0  0  0
  -24.1523  -34.2804  -11.7862 C   0  0  0  0  0  0  0  0  0  0  0  0
  -23.6677  -34.2503  -13.2355 C   0  0  0  0  0  0  0  0  0  0  0  0
  -24.4893  -33.6910  -14.2263 C   0  0  0  0  0  0  0  0  0  0  0  0
  -24.0519  -33.5882  -15.5517 C   0  0  0  0  0  0  0  0  0  0  0  0
  -22.7788  -34.0297  -15.8916 C   0  0  0  0  0  0  0  0  0  0  0  0
  -22.3092  -33.9467  -17.1678 O   0  0  0  0  0  0  0  0  0  0  0  0
  -21.9573  -34.6100  -14.9387 C   0  0  0  0  0  0  0  0  0  0  0  0
  -22.4193  -34.7630  -13.6298 C   0  0  0  0  0  0  0  0  0  0  0  0
  -22.3999  -35.1796  -10.2010 C   0  0  0  0  0  0  0  0  0  0  0  0
  -22.9415  -36.1539   -9.6997 O   0  0  0  0  0  0  0  0  0  0  0  0
  -21.0548  -35.1638  -10.3457 O   0  0  0  0  0  0  0  0  0  0  0  0
  -19.6926  -31.4078  -11.9587 C   0  0  0  0  0  0  0  0  0  0  0  0
  -18.8226  -31.5247  -12.9788 C   0  0  0  0  0  0  0  0  0  0  0  0
  -17.4150  -31.8834  -12.7472 C   0  0  0  0  0  0  0  0  0  0  0  0
  -16.8702  -33.0335  -13.3368 C   0  0  0  0  0  0  0  0  0  0  0  0
  -15.5157  -33.3303  -13.1882 C   0  0  0  0  0  0  0  0  0  0  0  0
  -14.6968  -32.4826  -12.4458 C   0  0  0  0  0  0  0  0  0  0  0  0
  -15.2304  -31.3407  -11.8495 C   0  0  0  0  0  0  0  0  0  0  0  0
  -16.5846  -31.0397  -11.9994 C   0  0  0  0  0  0  0  0  0  0  0  0
  -19.2972  -31.2839  -14.3893 C   0  0  0  0  0  0  0  0  0  0  0  0
  -18.5366  -31.5344  -15.3215 O   0  0  0  0  0  0  0  0  0  0  0  0
  -20.5943  -30.7987  -14.5057 N   0  0  0  0  0  0  0  0  0  0  0  0
  -27.0519  -30.2133  -17.4149 C   0  0  0  0  0  0  0  0  0  0  0  0
  -27.5425  -28.4739  -15.8010 N   0  0  0  0  0  0  0  0  0  0  0  0
  1  2  2  0
  2  3  1  0
  3  4  1  0
  4  5  2  0
  4  6  1  0
  6  7  1  6
  7  8  1  0
  8  9  1  0
  9 10  2  0
 10 11  1  0
 11 12  2  0
 12 13  1  0
 13 14  1  0
 14 15  1  0
 15 16  2  0
 16 17  1  0
 17 18  1  0
 18 19  1  0
 19 20  1  0
 20 21  1  0
 21 22  1  0
 22 23  1  0
 23 24  1  0
 17 25  2  0
 25 26  1  0
 26 27  2  0
 27 28  1  0
 28 29  1  0
 29 30  2  0
 30 31  1  0
 31 32  2  0
 31 33  1  0
 33 34  1  0
 34 35  1  6
 35 36  1  0
 36 37  2  0
 37 38  1  0
 38 39  2  0
 39 40  1  0
 39 41  1  0
 41 42  2  0
 34 43  1  0
 43 44  2  0
 43 45  1  0
 30 46  1  0
 46 47  2  0
 47 48  1  0
 48 49  2  0
 49 50  1  0
 50 51  2  0
 51 52  1  0
 52 53  2  0
 47 54  1  0
 54 55  2  0
 54 56  1  0
 13 57  2  0
  6 58  1  0
 58  2  1  0
 57  6  1  0
 57  9  1  0
 27 15  1  0
 56 29  1  0
 24 19  1  0
 56 26  1  0
 42 36  1  0
 53 48  1  0
M  END
>  <inchikey>  (36) 
ZLSRSYLISSFVFJ-HPEARGQHSA-N

>  <fragmenstein_mode>  (36) 
expansion

>  <exports>  (36) 
['/opt/xchem-fragalysis-2/maxwin/BulkDock/OUTPUTS/green_site_rna_tunnel_fstein_bulkdock_input_split1000_batch001_217910.sdf']

>  <name>  (36) 
ZLSRSYLISSFVFJ-HPEARGQHSA-N

>  <ref_pdb>  (36) 
5iq6-a

>  <alias>  (36) 
None

>  <energy_score>  (36) 
-165.024503

>  <SLURM_JOB_NAME>  (36) 
BulkDock.place:Flavi_NS5_RdRp:green_site_rna_tunnel_fstein_bulkdock_input_split1000_batch001

>  <tags>  (36) 
['Fragmenstein placed']

>  <fragmenstein_error>  (36) 
None

>  <original SMILES>  (36) 
O=C1NC(=O)[C@@]2(CCc3cccc(Nc4cc(OC5CCCCC5)cc5c4sc4c(C(=O)N[C@@H](Cc6ccc(O)cc6)C(=O)O)cc(-c6ccccc6)c(=O)n45)c32)N1

>  <csv_name>  (36) 
green_site_rna_tunnel_fstein_bulkdock_input_split1000_batch001.csv

>  <ref_mols>  (36) 
z0107a,5iq6-a

>  <distance_score>  (36) 
0.739205

>  <SLURM_JOB_ID>  (36) 
217910

>  <original ID>  (36) 
ZLSRSYLISSFVFJ-HPEARGQHSA-N

>  <HIPPO Pose ID>  (36) 
82739

>  <scratch_subdir>  (36) 
/opt/xchem-fragalysis-2/maxwin/BulkDock/SCRATCH/217910/C68186-P222

>  <fragmenstein_runtime>  (36) 
116.039489

>  <HIPPO Compound ID>  (36) 
68186

>  <fragmenstein_outcome>  (36) 
acceptable

$$$$
82995
     RDKit          3D

 15 16  0  0  0  0  0  0  0  0999 V2000
  -26.2796  -29.6800  -23.8372 C   0  0  0  0  0  0  0  0  0  0  0  0
  -26.9166  -30.1935  -22.5513 C   0  0  0  0  0  0  0  0  0  0  0  0
  -27.0180  -29.1328  -21.6086 O   0  0  0  0  0  0  0  0  0  0  0  0
  -27.6532  -29.5993  -20.4314 N   0  0  0  0  0  0  0  0  0  0  0  0
  -28.9926  -29.4443  -20.1751 C   0  0  0  0  0  0  0  0  0  0  0  0
  -29.8651  -29.0872  -21.1104 O   0  0  0  0  0  0  0  0  0  0  0  0
  -29.1799  -29.6656  -18.8277 C   0  0  0  0  0  0  0  0  0  0  0  0
  -27.9097  -29.9173  -18.2389 C   0  0  0  0  0  0  0  0  0  0  0  0
  -27.4269  -30.0820  -16.9209 C   0  0  0  0  0  0  0  0  0  0  0  0
  -28.2045  -29.8361  -15.8078 O   0  0  0  0  0  0  0  0  0  0  0  0
  -29.0552  -30.9458  -15.5415 C   0  0  0  0  0  0  0  0  0  0  0  0
  -26.0738  -30.3600  -16.6990 C   0  0  0  0  0  0  0  0  0  0  0  0
  -25.2066  -30.5269  -17.7708 C   0  0  0  0  0  0  0  0  0  0  0  0
  -25.6551  -30.3430  -19.0782 C   0  0  0  0  0  0  0  0  0  0  0  0
  -26.9911  -29.9893  -19.2904 C   0  0  0  0  0  0  0  0  0  0  0  0
  1  2  1  0
  2  3  1  0
  3  4  1  0
  4  5  1  0
  5  6  1  0
  5  7  2  0
  7  8  1  0
  8  9  2  0
  9 10  1  0
 10 11  1  0
  9 12  1  0
 12 13  2  0
 13 14  1  0
 14 15  2  0
 15  4  1  0
 15  8  1  0
M  END
>  <inchikey>  (37) 
QFTAPOGJRXLPTJ-UHFFFAOYSA-N

>  <fragmenstein_mode>  (37) 
expansion

>  <exports>  (37) 
['/opt/xchem-fragalysis-2/maxwin/BulkDock/OUTPUTS/green_site_rna_tunnel_fstein_bulkdock_input_split1000_batch000_217965.sdf']

>  <name>  (37) 
QFTAPOGJRXLPTJ-UHFFFAOYSA-N

>  <ref_pdb>  (37) 
z0221a

>  <alias>  (37) 
None

>  <energy_score>  (37) 
-32.485014

>  <SLURM_JOB_NAME>  (37) 
BulkDock.place:Flavi_NS5_RdRp:green_site_rna_tunnel_fstein_bulkdock_input_split1000_batch000

>  <tags>  (37) 
['Fragmenstein placed']

>  <fragmenstein_error>  (37) 
None

>  <original SMILES>  (37) 
CCOn1c(O)cc2c(OC)cccc21

>  <csv_name>  (37) 
green_site_rna_tunnel_fstein_bulkdock_input_split1000_batch000.csv

>  <ref_mols>  (37) 
z0107a,z0221a

>  <distance_score>  (37) 
0.971958

>  <SLURM_JOB_ID>  (37) 
217965

>  <original ID>  (37) 
QFTAPOGJRXLPTJ-UHFFFAOYSA-N

>  <HIPPO Pose ID>  (37) 
82995

>  <scratch_subdir>  (37) 
/opt/xchem-fragalysis-2/maxwin/BulkDock/SCRATCH/217965/C66809-P105

>  <fragmenstein_runtime>  (37) 
1.577917

>  <HIPPO Compound ID>  (37) 
66809

>  <fragmenstein_outcome>  (37) 
acceptable

$$$$
82996
     RDKit          3D

 17 19  0  0  0  0  0  0  0  0999 V2000
  -28.8441  -30.6402  -15.4851 C   0  0  0  0  0  0  0  0  0  0  0  0
  -27.7935  -29.7657  -15.8913 O   0  0  0  0  0  0  0  0  0  0  0  0
  -27.3276  -30.1054  -17.1500 C   0  0  0  0  0  0  0  0  0  0  0  0
  -25.9734  -30.4520  -17.2416 C   0  0  0  0  0  0  0  0  0  0  0  0
  -25.3996  -30.8575  -18.4569 C   0  0  0  0  0  0  0  0  0  0  0  0
  -23.9557  -31.3243  -18.4466 C   0  0  0  0  0  0  0  0  0  0  0  0
  -23.5650  -32.3784  -19.4937 C   0  0  2  0  0  0  0  0  0  0  0  0
  -22.4267  -33.2866  -19.0190 C   0  0  0  0  0  0  0  0  0  0  0  0
  -21.6459  -33.6399  -20.2806 C   0  0  0  0  0  0  0  0  0  0  0  0
  -22.3493  -32.9823  -21.3821 N   0  0  0  0  0  0  0  0  0  0  0  0
  -22.9858  -31.8054  -20.7799 C   0  0  0  0  0  0  0  0  0  0  0  0
  -26.1696  -30.8030  -19.6287 C   0  0  0  0  0  0  0  0  0  0  0  0
  -27.5134  -30.4127  -19.5310 C   0  0  0  0  0  0  0  0  0  0  0  0
  -28.4655  -30.2805  -20.5173 N   0  0  0  0  0  0  0  0  0  0  0  0
  -29.6660  -29.9246  -19.9696 C   0  0  0  0  0  0  0  0  0  0  0  0
  -29.4792  -29.7849  -18.6141 C   0  0  0  0  0  0  0  0  0  0  0  0
  -28.1192  -30.0797  -18.3182 C   0  0  0  0  0  0  0  0  0  0  0  0
  1  2  1  0
  2  3  1  0
  3  4  2  0
  4  5  1  0
  5  6  1  0
  7  6  1  1
  7  8  1  0
  8  9  1  0
  9 10  1  0
 10 11  1  0
  5 12  2  0
 12 13  1  0
 13 14  1  0
 14 15  1  0
 15 16  2  0
 16 17  1  0
 17  3  1  0
 11  7  1  0
 17 13  2  0
M  END
>  <inchikey>  (38) 
CITWUZFMFFTAGJ-JTQLQIEISA-N

>  <fragmenstein_mode>  (38) 
expansion

>  <exports>  (38) 
['/opt/xchem-fragalysis-2/maxwin/BulkDock/OUTPUTS/green_site_rna_tunnel_fstein_bulkdock_input_split1000_batch000_217965.sdf']

>  <name>  (38) 
CITWUZFMFFTAGJ-JTQLQIEISA-N

>  <ref_pdb>  (38) 
z0107a

>  <alias>  (38) 
None

>  <energy_score>  (38) 
-16.32658

>  <SLURM_JOB_NAME>  (38) 
BulkDock.place:Flavi_NS5_RdRp:green_site_rna_tunnel_fstein_bulkdock_input_split1000_batch000

>  <tags>  (38) 
['Fragmenstein placed']

>  <fragmenstein_error>  (38) 
None

>  <original SMILES>  (38) 
COc1cc(C[C@@H]2CCNC2)cc2[nH]ccc12

>  <csv_name>  (38) 
green_site_rna_tunnel_fstein_bulkdock_input_split1000_batch000.csv

>  <ref_mols>  (38) 
z0107a,z0309a

>  <distance_score>  (38) 
0.642756

>  <SLURM_JOB_ID>  (38) 
217965

>  <original ID>  (38) 
CITWUZFMFFTAGJ-JTQLQIEISA-N

>  <HIPPO Pose ID>  (38) 
82996

>  <scratch_subdir>  (38) 
/opt/xchem-fragalysis-2/maxwin/BulkDock/SCRATCH/217965/C66810-P86

>  <fragmenstein_runtime>  (38) 
1.982191

>  <HIPPO Compound ID>  (38) 
66810

>  <fragmenstein_outcome>  (38) 
acceptable

$$$$
82997
     RDKit          3D

 17 19  0  0  0  0  0  0  0  0999 V2000
  -28.7374  -30.0979  -15.4893 C   0  0  0  0  0  0  0  0  0  0  0  0
  -27.4232  -30.4779  -15.8402 O   0  0  0  0  0  0  0  0  0  0  0  0
  -27.1152  -30.5140  -17.1967 C   0  0  0  0  0  0  0  0  0  0  0  0
  -25.7834  -30.9055  -17.4334 C   0  0  0  0  0  0  0  0  0  0  0  0
  -25.2454  -31.0039  -18.7210 C   0  0  0  0  0  0  0  0  0  0  0  0
  -23.8016  -31.4304  -18.8932 C   0  0  0  0  0  0  0  0  0  0  0  0
  -23.4443  -32.3470  -20.0799 C   0  0  2  0  0  0  0  0  0  0  0  0
  -23.4545  -33.8346  -19.7304 C   0  0  0  0  0  0  0  0  0  0  0  0
  -22.2574  -34.4523  -20.4415 C   0  0  0  0  0  0  0  0  0  0  0  0
  -21.7808  -33.4042  -21.3365 N   0  0  0  0  0  0  0  0  0  0  0  0
  -22.0214  -32.1591  -20.6012 C   0  0  0  0  0  0  0  0  0  0  0  0
  -26.0361  -30.6220  -19.8106 C   0  0  0  0  0  0  0  0  0  0  0  0
  -27.3820  -30.2991  -19.5825 C   0  0  0  0  0  0  0  0  0  0  0  0
  -28.3654  -30.0064  -20.5011 N   0  0  0  0  0  0  0  0  0  0  0  0
  -29.5654  -29.8577  -19.8720 C   0  0  0  0  0  0  0  0  0  0  0  0
  -29.3419  -29.9680  -18.5193 C   0  0  0  0  0  0  0  0  0  0  0  0
  -27.9590  -30.2560  -18.3064 C   0  0  0  0  0  0  0  0  0  0  0  0
  1  2  1  0
  2  3  1  0
  3  4  2  0
  4  5  1  0
  5  6  1  0
  7  6  1  1
  7  8  1  0
  8  9  1  0
  9 10  1  0
 10 11  1  0
  5 12  2  0
 12 13  1  0
 13 14  1  0
 14 15  1  0
 15 16  2  0
 16 17  1  0
 17  3  1  0
 11  7  1  0
 17 13  2  0
M  END
>  <inchikey>  (39) 
CITWUZFMFFTAGJ-JTQLQIEISA-N

>  <fragmenstein_mode>  (39) 
expansion

>  <exports>  (39) 
['/opt/xchem-fragalysis-2/maxwin/BulkDock/OUTPUTS/green_site_rna_tunnel_fstein_bulkdock_input_split1000_batch000_217965.sdf']

>  <name>  (39) 
CITWUZFMFFTAGJ-JTQLQIEISA-N

>  <ref_pdb>  (39) 
z0309a

>  <alias>  (39) 
None

>  <energy_score>  (39) 
-14.669151

>  <SLURM_JOB_NAME>  (39) 
BulkDock.place:Flavi_NS5_RdRp:green_site_rna_tunnel_fstein_bulkdock_input_split1000_batch000

>  <tags>  (39) 
['Fragmenstein placed']

>  <fragmenstein_error>  (39) 
None

>  <original SMILES>  (39) 
COc1cc(C[C@@H]2CCNC2)cc2[nH]ccc12

>  <csv_name>  (39) 
green_site_rna_tunnel_fstein_bulkdock_input_split1000_batch000.csv

>  <ref_mols>  (39) 
z0107a,z0309a

>  <distance_score>  (39) 
0.726161

>  <SLURM_JOB_ID>  (39) 
217965

>  <original ID>  (39) 
CITWUZFMFFTAGJ-JTQLQIEISA-N

>  <HIPPO Pose ID>  (39) 
82997

>  <scratch_subdir>  (39) 
/opt/xchem-fragalysis-2/maxwin/BulkDock/SCRATCH/217965/C66810-P113

>  <fragmenstein_runtime>  (39) 
2.527519

>  <HIPPO Compound ID>  (39) 
66810

>  <fragmenstein_outcome>  (39) 
acceptable

$$$$
82999
     RDKit          3D

 14 14  0  0  0  0  0  0  0  0999 V2000
  -30.0005  -29.8903  -21.2182 C   0  0  0  0  0  0  0  0  0  0  0  0
  -29.8631  -30.9121  -20.1114 C   0  0  0  0  0  0  0  0  0  0  0  0
  -29.8653  -30.2919  -18.7159 C   0  0  0  0  0  0  0  0  0  0  0  0
  -28.7994  -29.2432  -18.4048 C   0  0  0  0  0  0  0  0  0  0  0  0
  -27.4058  -29.7817  -18.2469 C   0  0  0  0  0  0  0  0  0  0  0  0
  -26.7424  -29.7042  -17.0223 C   0  0  0  0  0  0  0  0  0  0  0  0
  -25.4422  -30.1826  -16.9103 C   0  0  0  0  0  0  0  0  0  0  0  0
  -24.8198  -30.7846  -18.0064 C   0  0  0  0  0  0  0  0  0  0  0  0
  -25.4558  -30.8701  -19.2507 C   0  0  0  0  0  0  0  0  0  0  0  0
  -24.8437  -31.5828  -20.2851 N   0  0  0  0  0  0  0  0  0  0  0  0
  -24.7798  -31.0624  -21.6604 C   0  0  0  0  0  0  0  0  0  0  0  0
  -26.0760  -31.2258  -22.4352 C   0  0  0  0  0  0  0  0  0  0  0  0
  -23.6898  -31.8596  -22.3878 C   0  0  0  0  0  0  0  0  0  0  0  0
  -26.7365  -30.3374  -19.3475 C   0  0  0  0  0  0  0  0  0  0  0  0
  1  2  1  0
  2  3  1  0
  3  4  1  0
  4  5  1  0
  5  6  2  0
  6  7  1  0
  7  8  2  0
  8  9  1  0
  9 10  1  0
 10 11  1  0
 11 12  1  0
 11 13  1  0
  9 14  2  0
 14  5  1  0
M  END
>  <inchikey>  (40) 
YUHACVZIAPTHAH-UHFFFAOYSA-N

>  <fragmenstein_mode>  (40) 
expansion

>  <exports>  (40) 
['/opt/xchem-fragalysis-2/maxwin/BulkDock/OUTPUTS/green_site_rna_tunnel_fstein_bulkdock_input_split1000_batch000_217965.sdf']

>  <name>  (40) 
YUHACVZIAPTHAH-UHFFFAOYSA-N

>  <ref_pdb>  (40) 
z0107a

>  <alias>  (40) 
None

>  <energy_score>  (40) 
-18.116428

>  <SLURM_JOB_NAME>  (40) 
BulkDock.place:Flavi_NS5_RdRp:green_site_rna_tunnel_fstein_bulkdock_input_split1000_batch000

>  <tags>  (40) 
['Fragmenstein placed']

>  <fragmenstein_error>  (40) 
None

>  <original SMILES>  (40) 
CCCCc1cccc(NC(C)C)c1

>  <csv_name>  (40) 
green_site_rna_tunnel_fstein_bulkdock_input_split1000_batch000.csv

>  <ref_mols>  (40) 
z0107a,z0483a

>  <distance_score>  (40) 
0.993795

>  <SLURM_JOB_ID>  (40) 
217965

>  <original ID>  (40) 
YUHACVZIAPTHAH-UHFFFAOYSA-N

>  <HIPPO Pose ID>  (40) 
82999

>  <scratch_subdir>  (40) 
/opt/xchem-fragalysis-2/maxwin/BulkDock/SCRATCH/217965/C66816-P86

>  <fragmenstein_runtime>  (40) 
12.501478

>  <HIPPO Compound ID>  (40) 
66816

>  <fragmenstein_outcome>  (40) 
acceptable

$$$$
83025
     RDKit          3D

 22 24  0  0  0  0  0  0  0  0999 V2000
  -19.3819  -33.1400  -21.1325 C   0  0  0  0  0  0  0  0  0  0  0  0
  -20.3602  -33.0489  -22.1689 O   0  0  0  0  0  0  0  0  0  0  0  0
  -21.6027  -32.7035  -21.7066 C   0  0  0  0  0  0  0  0  0  0  0  0
  -21.8209  -31.8299  -20.6462 C   0  0  0  0  0  0  0  0  0  0  0  0
  -23.1221  -31.5596  -20.2163 C   0  0  0  0  0  0  0  0  0  0  0  0
  -24.2265  -32.1337  -20.8492 C   0  0  0  0  0  0  0  0  0  0  0  0
  -25.5499  -31.8184  -20.4428 N   0  0  0  0  0  0  0  0  0  0  0  0
  -26.0505  -30.3827  -20.5549 N   0  0  2  0  0  4  0  0  0  0  0  0
  -25.9577  -29.9040  -21.9779 C   0  0  0  0  0  0  0  0  0  0  0  0
  -25.2971  -29.5974  -19.7550 O   0  0  0  0  0  1  0  0  0  0  0  0
  -27.4956  -30.3110  -20.0459 C   0  0  0  0  0  0  0  0  0  0  0  0
  -28.4711  -30.1721  -20.9962 N   0  0  0  0  0  0  0  0  0  0  0  0
  -29.7334  -30.0086  -20.5710 C   0  0  0  0  0  0  0  0  0  0  0  0
  -30.0959  -29.9984  -19.2417 C   0  0  0  0  0  0  0  0  0  0  0  0
  -29.1169  -30.1551  -18.2599 C   0  0  0  0  0  0  0  0  0  0  0  0
  -29.4681  -30.1267  -16.8990 C   0  0  0  0  0  0  0  0  0  0  0  0
  -28.5098  -30.3000  -15.9030 C   0  0  0  0  0  0  0  0  0  0  0  0
  -27.1886  -30.5228  -16.2535 C   0  0  0  0  0  0  0  0  0  0  0  0
  -26.8297  -30.5498  -17.6004 C   0  0  0  0  0  0  0  0  0  0  0  0
  -27.7747  -30.3447  -18.6439 C   0  0  0  0  0  0  0  0  0  0  0  0
  -24.0000  -32.9909  -21.9338 C   0  0  0  0  0  0  0  0  0  0  0  0
  -22.6955  -33.2650  -22.3653 C   0  0  0  0  0  0  0  0  0  0  0  0
  1  2  1  0
  2  3  1  0
  3  4  2  0
  4  5  1  0
  5  6  2  0
  6  7  1  0
  7  8  1  0
  8  9  1  6
  8 10  1  0
  8 11  1  0
 11 12  2  0
 12 13  1  0
 13 14  2  0
 14 15  1  0
 15 16  2  0
 16 17  1  0
 17 18  2  0
 18 19  1  0
 19 20  2  0
  6 21  1  0
 21 22  2  0
 22  3  1  0
 20 11  1  0
 20 15  1  0
M  CHG  2   8   1  10  -1
M  END
>  <inchikey>  (41) 
ZSMIRIJLLQMJRE-HXUWFJFHSA-N

>  <fragmenstein_mode>  (41) 
expansion

>  <exports>  (41) 
['/opt/xchem-fragalysis-2/maxwin/BulkDock/OUTPUTS/green_site_rna_tunnel_fstein_bulkdock_input_split1000_batch000_217965.sdf']

>  <name>  (41) 
ZSMIRIJLLQMJRE-HXUWFJFHSA-N

>  <ref_pdb>  (41) 
z0111a

>  <alias>  (41) 
None

>  <energy_score>  (41) 
-68.471742

>  <SLURM_JOB_NAME>  (41) 
BulkDock.place:Flavi_NS5_RdRp:green_site_rna_tunnel_fstein_bulkdock_input_split1000_batch000

>  <tags>  (41) 
['Fragmenstein placed']

>  <fragmenstein_error>  (41) 
None

>  <original SMILES>  (41) 
COc1ccc(N[N@+](C)([O-])c2nccc3ccccc23)cc1

>  <csv_name>  (41) 
green_site_rna_tunnel_fstein_bulkdock_input_split1000_batch000.csv

>  <ref_mols>  (41) 
d0411a,z0111a

>  <distance_score>  (41) 
0.491554

>  <SLURM_JOB_ID>  (41) 
217965

>  <original ID>  (41) 
ZSMIRIJLLQMJRE-HXUWFJFHSA-N

>  <HIPPO Pose ID>  (41) 
83025

>  <scratch_subdir>  (41) 
/opt/xchem-fragalysis-2/maxwin/BulkDock/SCRATCH/217965/C66842-P88

>  <fragmenstein_runtime>  (41) 
2.490692

>  <HIPPO Compound ID>  (41) 
66842

>  <fragmenstein_outcome>  (41) 
acceptable

$$$$
83028
     RDKit          3D

 18 20  0  0  0  0  0  0  0  0999 V2000
  -24.6528  -33.3945  -19.7524 C   0  0  0  0  0  0  0  0  0  0  0  0
  -25.3180  -32.7389  -20.9562 C   0  0  1  0  0  0  0  0  0  0  0  0
  -26.7297  -32.9057  -20.8284 O   0  0  0  0  0  0  0  0  0  0  0  0
  -24.9261  -31.2485  -21.1667 C   0  0  0  0  0  0  0  0  0  0  0  0
  -25.4700  -30.3845  -20.1452 N   0  0  0  0  0  0  0  0  0  0  0  0
  -24.9708  -30.3998  -18.8454 C   0  0  0  0  0  0  0  0  0  0  0  0
  -23.8661  -30.6878  -18.4339 O   0  0  0  0  0  0  0  0  0  0  0  0
  -26.1154  -30.1321  -17.9789 C   0  0  0  0  0  0  0  0  0  0  0  0
  -26.2484  -30.2158  -16.6127 C   0  0  0  0  0  0  0  0  0  0  0  0
  -27.5491  -30.1726  -16.1159 C   0  0  0  0  0  0  0  0  0  0  0  0
  -28.6483  -30.0516  -16.9960 C   0  0  0  0  0  0  0  0  0  0  0  0
  -30.3507  -30.2265  -16.2958 Br  0  0  0  0  0  0  0  0  0  0  0  0
  -28.5069  -29.9458  -18.3930 C   0  0  0  0  0  0  0  0  0  0  0  0
  -29.4672  -29.9002  -19.4330 C   0  0  0  0  0  0  0  0  0  0  0  0
  -29.0224  -29.9534  -20.7531 C   0  0  0  0  0  0  0  0  0  0  0  0
  -27.7181  -30.0928  -21.1216 N   0  0  0  0  0  0  0  0  0  0  0  0
  -26.8406  -30.0957  -20.1058 C   0  0  0  0  0  0  0  0  0  0  0  0
  -27.1989  -29.9916  -18.8025 C   0  0  0  0  0  0  0  0  0  0  0  0
  2  1  1  1
  2  3  1  0
  2  4  1  0
  4  5  1  0
  5  6  1  0
  6  7  2  0
  6  8  1  0
  8  9  2  0
  9 10  1  0
 10 11  2  0
 11 12  1  0
 11 13  1  0
 13 14  2  0
 14 15  1  0
 15 16  2  0
 16 17  1  0
 17 18  2  0
 17  5  1  0
 18  8  1  0
 18 13  1  0
M  END
>  <inchikey>  (42) 
AJTOANVHDZXAHJ-SSDOTTSWSA-N

>  <fragmenstein_mode>  (42) 
expansion

>  <exports>  (42) 
['/opt/xchem-fragalysis-2/maxwin/BulkDock/OUTPUTS/green_site_rna_tunnel_fstein_bulkdock_input_split1000_batch000_217965.sdf']

>  <name>  (42) 
AJTOANVHDZXAHJ-SSDOTTSWSA-N

>  <ref_pdb>  (42) 
z0111a

>  <alias>  (42) 
None

>  <energy_score>  (42) 
-18.733102

>  <SLURM_JOB_NAME>  (42) 
BulkDock.place:Flavi_NS5_RdRp:green_site_rna_tunnel_fstein_bulkdock_input_split1000_batch000

>  <tags>  (42) 
['Fragmenstein placed']

>  <fragmenstein_error>  (42) 
None

>  <original SMILES>  (42) 
C[C@@H](O)CN1C(=O)c2ccc(Br)c3ccnc1c23

>  <csv_name>  (42) 
green_site_rna_tunnel_fstein_bulkdock_input_split1000_batch000.csv

>  <ref_mols>  (42) 
d0472b,z0111a

>  <distance_score>  (42) 
0.953573

>  <SLURM_JOB_ID>  (42) 
217965

>  <original ID>  (42) 
AJTOANVHDZXAHJ-SSDOTTSWSA-N

>  <HIPPO Pose ID>  (42) 
83028

>  <scratch_subdir>  (42) 
/opt/xchem-fragalysis-2/maxwin/BulkDock/SCRATCH/217965/C66843-P88

>  <fragmenstein_runtime>  (42) 
4.588287

>  <HIPPO Compound ID>  (42) 
66843

>  <fragmenstein_outcome>  (42) 
acceptable

$$$$
83036
     RDKit          3D

 17 18  0  0  0  0  0  0  0  0999 V2000
  -26.1277  -31.2232  -21.4143 C   0  0  0  0  0  0  0  0  0  0  0  0
  -26.8038  -30.0325  -20.9229 N   0  0  0  0  0  0  0  0  0  0  0  0
  -28.0530  -30.2393  -20.2844 C   0  0  0  0  0  0  0  0  0  0  0  0
  -29.0555  -29.9978  -21.1470 N   0  0  0  0  0  0  0  0  0  0  0  0
  -30.2749  -29.8894  -20.6120 C   0  0  0  0  0  0  0  0  0  0  0  0
  -30.5234  -29.9834  -19.2558 C   0  0  0  0  0  0  0  0  0  0  0  0
  -29.4828  -30.2718  -18.3712 C   0  0  0  0  0  0  0  0  0  0  0  0
  -29.6829  -30.2845  -16.9769 C   0  0  0  0  0  0  0  0  0  0  0  0
  -28.6381  -30.6087  -16.1223 C   0  0  0  0  0  0  0  0  0  0  0  0
  -28.8052  -30.5425  -14.7950 F   0  0  0  0  0  0  0  0  0  0  0  0
  -27.4235  -31.0192  -16.6338 C   0  0  0  0  0  0  0  0  0  0  0  0
  -27.2077  -30.9771  -18.0142 C   0  0  0  0  0  0  0  0  0  0  0  0
  -28.2079  -30.5172  -18.9020 C   0  0  0  0  0  0  0  0  0  0  0  0
  -25.9414  -28.7682  -20.2805 S   0  0  0  0  0  0  0  0  0  0  0  0
  -25.1324  -28.1795  -21.5995 N   0  0  0  0  0  0  0  0  0  0  0  0
  -24.9426  -29.3020  -19.3933 O   0  0  0  0  0  0  0  0  0  0  0  0
  -26.8214  -27.7085  -19.8551 O   0  0  0  0  0  0  0  0  0  0  0  0
  1  2  1  0
  2  3  1  0
  3  4  2  0
  4  5  1  0
  5  6  2  0
  6  7  1  0
  7  8  2  0
  8  9  1  0
  9 10  1  0
  9 11  2  0
 11 12  1  0
 12 13  2  0
  2 14  1  0
 14 15  1  0
 14 16  2  0
 14 17  2  0
 13  3  1  0
 13  7  1  0
M  END
>  <inchikey>  (43) 
PHJBSTGCZPQCAF-UHFFFAOYSA-N

>  <fragmenstein_mode>  (43) 
expansion

>  <exports>  (43) 
['/opt/xchem-fragalysis-2/maxwin/BulkDock/OUTPUTS/green_site_rna_tunnel_fstein_bulkdock_input_split1000_batch000_217965.sdf']

>  <name>  (43) 
PHJBSTGCZPQCAF-UHFFFAOYSA-N

>  <ref_pdb>  (43) 
z0200a

>  <alias>  (43) 
None

>  <energy_score>  (43) 
-68.064027

>  <SLURM_JOB_NAME>  (43) 
BulkDock.place:Flavi_NS5_RdRp:green_site_rna_tunnel_fstein_bulkdock_input_split1000_batch000

>  <tags>  (43) 
['Fragmenstein placed']

>  <fragmenstein_error>  (43) 
None

>  <original SMILES>  (43) 
CN(c1nccc2cc(F)ccc12)S(N)(=O)=O

>  <csv_name>  (43) 
green_site_rna_tunnel_fstein_bulkdock_input_split1000_batch000.csv

>  <ref_mols>  (43) 
z0111a,z0200a

>  <distance_score>  (43) 
0.94305

>  <SLURM_JOB_ID>  (43) 
217965

>  <original ID>  (43) 
PHJBSTGCZPQCAF-UHFFFAOYSA-N

>  <HIPPO Pose ID>  (43) 
83036

>  <scratch_subdir>  (43) 
/opt/xchem-fragalysis-2/maxwin/BulkDock/SCRATCH/217965/C66848-P100

>  <fragmenstein_runtime>  (43) 
1.25434

>  <HIPPO Compound ID>  (43) 
66848

>  <fragmenstein_outcome>  (43) 
acceptable

$$$$
83042
     RDKit          3D

 17 18  0  0  0  0  0  0  0  0999 V2000
  -22.7540  -32.2039  -21.8109 C   0  0  0  0  0  0  0  0  0  0  0  0
  -24.0324  -32.3586  -22.6309 C   0  0  2  0  0  0  0  0  0  0  0  0
  -23.7682  -31.9634  -23.9947 N   0  0  0  0  0  0  0  0  0  0  0  0
  -25.0990  -31.4728  -22.2773 N   0  0  0  0  0  0  0  0  0  0  0  0
  -25.5500  -31.4549  -20.9113 C   0  0  2  0  0  0  0  0  0  0  0  0
  -26.4593  -32.5711  -20.7904 N   0  0  0  0  0  0  0  0  0  0  0  0
  -26.1474  -30.0484  -20.6619 C   0  0  0  0  0  0  0  0  0  0  0  0
  -27.5034  -30.0204  -20.0196 C   0  0  0  0  0  0  0  0  0  0  0  0
  -28.5305  -29.9107  -20.9083 N   0  0  0  0  0  0  0  0  0  0  0  0
  -29.7748  -29.8860  -20.4114 C   0  0  0  0  0  0  0  0  0  0  0  0
  -30.0516  -29.9709  -19.0635 C   0  0  0  0  0  0  0  0  0  0  0  0
  -29.0017  -30.0886  -18.1499 C   0  0  0  0  0  0  0  0  0  0  0  0
  -29.2561  -30.1772  -16.7733 C   0  0  0  0  0  0  0  0  0  0  0  0
  -28.2116  -30.3270  -15.8639 C   0  0  0  0  0  0  0  0  0  0  0  0
  -26.8992  -30.3856  -16.3158 C   0  0  0  0  0  0  0  0  0  0  0  0
  -26.6310  -30.2816  -17.6803 C   0  0  0  0  0  0  0  0  0  0  0  0
  -27.6764  -30.1286  -18.6228 C   0  0  0  0  0  0  0  0  0  0  0  0
  2  1  1  1
  2  3  1  0
  2  4  1  0
  4  5  1  0
  5  6  1  6
  5  7  1  0
  7  8  1  0
  8  9  2  0
  9 10  1  0
 10 11  2  0
 11 12  1  0
 12 13  2  0
 13 14  1  0
 14 15  2  0
 15 16  1  0
 16 17  2  0
 17  8  1  0
 17 12  1  0
M  END
>  <inchikey>  (44) 
WUYAGDWCNBGXAX-RNCFNFMXSA-N

>  <fragmenstein_mode>  (44) 
expansion

>  <exports>  (44) 
['/opt/xchem-fragalysis-2/maxwin/BulkDock/OUTPUTS/green_site_rna_tunnel_fstein_bulkdock_input_split1000_batch000_217965.sdf']

>  <name>  (44) 
WUYAGDWCNBGXAX-RNCFNFMXSA-N

>  <ref_pdb>  (44) 
z0111a

>  <alias>  (44) 
None

>  <energy_score>  (44) 
-42.69281

>  <SLURM_JOB_NAME>  (44) 
BulkDock.place:Flavi_NS5_RdRp:green_site_rna_tunnel_fstein_bulkdock_input_split1000_batch000

>  <tags>  (44) 
['Fragmenstein placed']

>  <fragmenstein_error>  (44) 
None

>  <original SMILES>  (44) 
C[C@H](N)N[C@H](N)Cc1nccc2ccccc12

>  <csv_name>  (44) 
green_site_rna_tunnel_fstein_bulkdock_input_split1000_batch000.csv

>  <ref_mols>  (44) 
z0111a,z0483a

>  <distance_score>  (44) 
0.561512

>  <SLURM_JOB_ID>  (44) 
217965

>  <original ID>  (44) 
WUYAGDWCNBGXAX-RNCFNFMXSA-N

>  <HIPPO Pose ID>  (44) 
83042

>  <scratch_subdir>  (44) 
/opt/xchem-fragalysis-2/maxwin/BulkDock/SCRATCH/217965/C66857-P88

>  <fragmenstein_runtime>  (44) 
2.128518

>  <HIPPO Compound ID>  (44) 
66857

>  <fragmenstein_outcome>  (44) 
acceptable

$$$$
83044
     RDKit          3D

 17 18  0  0  0  0  0  0  0  0999 V2000
  -22.4416  -32.5251  -21.2466 C   0  0  0  0  0  0  0  0  0  0  0  0
  -23.3664  -32.3938  -22.4465 C   0  0  2  0  0  0  0  0  0  0  0  0
  -22.6458  -31.8555  -23.5707 N   0  0  0  0  0  0  0  0  0  0  0  0
  -24.3875  -31.4188  -22.2645 N   0  0  0  0  0  0  0  0  0  0  0  0
  -25.3988  -31.6460  -21.2720 C   0  0  2  0  0  0  0  0  0  0  0  0
  -26.1053  -32.7816  -21.7888 N   0  0  0  0  0  0  0  0  0  0  0  0
  -26.1952  -30.3333  -21.2321 C   0  0  0  0  0  0  0  0  0  0  0  0
  -27.3937  -30.1597  -20.3453 C   0  0  0  0  0  0  0  0  0  0  0  0
  -28.5843  -30.2398  -20.9996 N   0  0  0  0  0  0  0  0  0  0  0  0
  -29.7042  -30.0135  -20.2975 C   0  0  0  0  0  0  0  0  0  0  0  0
  -29.7041  -29.6930  -18.9597 C   0  0  0  0  0  0  0  0  0  0  0  0
  -28.4944  -29.5742  -18.2863 C   0  0  0  0  0  0  0  0  0  0  0  0
  -28.4842  -29.2815  -16.9130 C   0  0  0  0  0  0  0  0  0  0  0  0
  -27.2826  -29.2812  -16.2048 C   0  0  0  0  0  0  0  0  0  0  0  0
  -26.0764  -29.4717  -16.8694 C   0  0  0  0  0  0  0  0  0  0  0  0
  -26.0763  -29.7252  -18.2426 C   0  0  0  0  0  0  0  0  0  0  0  0
  -27.2861  -29.8156  -18.9772 C   0  0  0  0  0  0  0  0  0  0  0  0
  2  1  1  1
  2  3  1  0
  2  4  1  0
  4  5  1  0
  5  6  1  6
  5  7  1  0
  7  8  1  0
  8  9  2  0
  9 10  1  0
 10 11  2  0
 11 12  1  0
 12 13  2  0
 13 14  1  0
 14 15  2  0
 15 16  1  0
 16 17  2  0
 17  8  1  0
 17 12  1  0
M  END
>  <inchikey>  (45) 
WUYAGDWCNBGXAX-RNCFNFMXSA-N

>  <fragmenstein_mode>  (45) 
expansion

>  <exports>  (45) 
['/opt/xchem-fragalysis-2/maxwin/BulkDock/OUTPUTS/green_site_rna_tunnel_fstein_bulkdock_input_split1000_batch000_217965.sdf']

>  <name>  (45) 
WUYAGDWCNBGXAX-RNCFNFMXSA-N

>  <ref_pdb>  (45) 
z0483a

>  <alias>  (45) 
None

>  <energy_score>  (45) 
-39.327491

>  <SLURM_JOB_NAME>  (45) 
BulkDock.place:Flavi_NS5_RdRp:green_site_rna_tunnel_fstein_bulkdock_input_split1000_batch000

>  <tags>  (45) 
['Fragmenstein placed']

>  <fragmenstein_error>  (45) 
None

>  <original SMILES>  (45) 
C[C@H](N)N[C@H](N)Cc1nccc2ccccc12

>  <csv_name>  (45) 
green_site_rna_tunnel_fstein_bulkdock_input_split1000_batch000.csv

>  <ref_mols>  (45) 
z0111a,z0483a

>  <distance_score>  (45) 
0.919298

>  <SLURM_JOB_ID>  (45) 
217965

>  <original ID>  (45) 
WUYAGDWCNBGXAX-RNCFNFMXSA-N

>  <HIPPO Pose ID>  (45) 
83044

>  <scratch_subdir>  (45) 
/opt/xchem-fragalysis-2/maxwin/BulkDock/SCRATCH/217965/C66857-P133

>  <fragmenstein_runtime>  (45) 
2.326004

>  <HIPPO Compound ID>  (45) 
66857

>  <fragmenstein_outcome>  (45) 
acceptable

$$$$
83215
     RDKit          3D

 16 17  0  0  0  0  0  0  0  0999 V2000
  -25.0446  -27.9929  -20.6637 C   0  0  0  0  0  0  0  0  0  0  0  0
  -26.3564  -28.5615  -20.9551 N   0  0  0  0  0  0  0  0  0  0  0  0
  -26.7291  -29.6098  -19.9822 C   0  0  2  0  0  0  0  0  0  0  0  0
  -25.9560  -30.9010  -20.2204 C   0  0  0  0  0  0  0  0  0  0  0  0
  -25.4782  -31.6827  -19.0236 C   0  0  0  0  0  0  0  0  0  0  0  0
  -25.8019  -31.3587  -21.3555 O   0  0  0  0  0  0  0  0  0  0  0  0
  -28.1761  -30.0955  -20.0156 C   0  0  2  0  0  0  0  0  0  0  0  0
  -29.1397  -29.2558  -20.8595 C   0  0  0  0  0  0  0  0  0  0  0  0
  -30.4941  -29.9553  -20.8841 C   0  0  0  0  0  0  0  0  0  0  0  0
  -31.0907  -30.3152  -19.5179 C   0  0  0  0  0  0  0  0  0  0  0  0
  -30.0777  -30.3290  -18.4247 C   0  0  0  0  0  0  0  0  0  0  0  0
  -30.3917  -30.4345  -16.7578 S   0  0  0  0  0  0  0  0  0  0  0  0
  -28.7085  -30.3084  -16.4379 C   0  0  0  0  0  0  0  0  0  0  0  0
  -28.2023  -30.3119  -15.0413 C   0  0  0  0  0  0  0  0  0  0  0  0
  -27.9441  -30.1973  -17.5026 N   0  0  0  0  0  0  0  0  0  0  0  0
  -28.7291  -30.2177  -18.6326 C   0  0  0  0  0  0  0  0  0  0  0  0
  1  2  1  0
  3  2  1  6
  3  4  1  0
  4  5  1  0
  4  6  2  0
  3  7  1  0
  7  8  1  6
  8  9  1  0
  9 10  1  0
 10 11  1  0
 11 12  1  0
 12 13  1  0
 13 14  1  0
 13 15  2  0
 15 16  1  0
 16  7  1  0
 16 11  2  0
M  END
>  <inchikey>  (46) 
GPEDDSYJVTYBQL-GXSJLCMTSA-N

>  <fragmenstein_mode>  (46) 
expansion

>  <exports>  (46) 
['/opt/xchem-fragalysis-2/maxwin/BulkDock/OUTPUTS/green_site_rna_tunnel_fstein_bulkdock_input_split1000_batch000_217965.sdf']

>  <name>  (46) 
GPEDDSYJVTYBQL-GXSJLCMTSA-N

>  <ref_pdb>  (46) 
z0200a

>  <alias>  (46) 
None

>  <energy_score>  (46) 
-53.521386

>  <SLURM_JOB_NAME>  (46) 
BulkDock.place:Flavi_NS5_RdRp:green_site_rna_tunnel_fstein_bulkdock_input_split1000_batch000

>  <tags>  (46) 
['Fragmenstein placed']

>  <fragmenstein_error>  (46) 
None

>  <original SMILES>  (46) 
CN[C@H](C(C)=O)[C@@H]1CCCc2sc(C)nc21

>  <csv_name>  (46) 
green_site_rna_tunnel_fstein_bulkdock_input_split1000_batch000.csv

>  <ref_mols>  (46) 
z0107a,z0200a

>  <distance_score>  (46) 
0.978945

>  <SLURM_JOB_ID>  (46) 
217965

>  <original ID>  (46) 
GPEDDSYJVTYBQL-GXSJLCMTSA-N

>  <HIPPO Pose ID>  (46) 
83215

>  <scratch_subdir>  (46) 
/opt/xchem-fragalysis-2/maxwin/BulkDock/SCRATCH/217965/C66928-P100

>  <fragmenstein_runtime>  (46) 
1.250692

>  <HIPPO Compound ID>  (46) 
66928

>  <fragmenstein_outcome>  (46) 
acceptable

$$$$
83392
     RDKit          3D

 25 28  0  0  0  0  0  0  0  0999 V2000
  -21.9996  -35.9187  -27.2981 F   0  0  0  0  0  0  0  0  0  0  0  0
  -22.1848  -35.1624  -26.2126 C   0  0  0  0  0  0  0  0  0  0  0  0
  -22.8514  -35.6743  -25.1138 C   0  0  0  0  0  0  0  0  0  0  0  0
  -22.9808  -34.8644  -23.9921 C   0  0  0  0  0  0  0  0  0  0  0  0
  -22.4619  -33.5639  -24.0324 C   0  0  0  0  0  0  0  0  0  0  0  0
  -22.8930  -32.6436  -22.9932 C   0  0  0  0  0  0  0  0  0  0  0  0
  -24.0271  -31.8122  -23.1306 C   0  0  0  0  0  0  0  0  0  0  0  0
  -24.3621  -31.4518  -21.8526 C   0  0  0  0  0  0  0  0  0  0  0  0
  -25.4842  -30.8259  -21.4393 N   0  0  0  0  0  0  0  0  0  0  0  0
  -25.8243  -30.5807  -20.1393 N   0  0  0  0  0  0  0  0  0  0  0  0
  -27.1646  -30.2663  -19.7611 C   0  0  0  0  0  0  0  0  0  0  0  0
  -28.1788  -30.2265  -20.7363 C   0  0  0  0  0  0  0  0  0  0  0  0
  -29.5134  -30.0616  -20.3833 C   0  0  0  0  0  0  0  0  0  0  0  0
  -29.8180  -29.9333  -19.0517 C   0  0  0  0  0  0  0  0  0  0  0  0
  -28.8902  -29.8625  -18.0863 N   0  0  0  0  0  0  0  0  0  0  0  0
  -27.5763  -30.0037  -18.4376 C   0  0  0  0  0  0  0  0  0  0  0  0
  -26.6778  -29.9754  -17.3238 N   0  0  0  0  0  0  0  0  0  0  0  0
  -25.3005  -29.9408  -17.3071 C   0  0  0  0  0  0  0  0  0  0  0  0
  -24.8631  -30.2777  -16.0460 C   0  0  0  0  0  0  0  0  0  0  0  0
  -25.9971  -30.3551  -15.2200 C   0  0  0  0  0  0  0  0  0  0  0  0
  -27.0921  -30.0623  -16.0009 C   0  0  0  0  0  0  0  0  0  0  0  0
  -23.3091  -31.8528  -21.0726 N   0  0  0  0  0  0  0  0  0  0  0  0
  -22.4455  -32.6668  -21.7266 N   0  0  0  0  0  0  0  0  0  0  0  0
  -21.8169  -33.0455  -25.1087 N   0  0  0  0  0  0  0  0  0  0  0  0
  -21.6753  -33.8731  -26.1642 C   0  0  0  0  0  0  0  0  0  0  0  0
  1  2  1  0
  2  3  2  0
  3  4  1  0
  4  5  2  0
  5  6  1  0
  6  7  1  0
  7  8  2  0
  8  9  1  0
  9 10  1  0
 10 11  1  0
 11 12  2  0
 12 13  1  0
 13 14  2  0
 14 15  1  0
 15 16  2  0
 16 17  1  0
 17 18  1  0
 18 19  2  0
 19 20  1  0
 20 21  2  0
  8 22  1  0
 22 23  1  0
  5 24  1  0
 24 25  2  0
 25  2  1  0
 23  6  2  0
 16 11  1  0
 21 17  1  0
M  END
>  <inchikey>  (47) 
OBMHGPZNEAUUPR-UHFFFAOYSA-N

>  <fragmenstein_mode>  (47) 
expansion

>  <exports>  (47) 
['/opt/xchem-fragalysis-2/maxwin/BulkDock/OUTPUTS/green_site_rna_tunnel_fstein_bulkdock_input_split1000_batch000_217965.sdf']

>  <name>  (47) 
OBMHGPZNEAUUPR-UHFFFAOYSA-N

>  <ref_pdb>  (47) 
z0211a

>  <alias>  (47) 
None

>  <energy_score>  (47) 
-114.006146

>  <SLURM_JOB_NAME>  (47) 
BulkDock.place:Flavi_NS5_RdRp:green_site_rna_tunnel_fstein_bulkdock_input_split1000_batch000

>  <tags>  (47) 
['Fragmenstein placed']

>  <fragmenstein_error>  (47) 
None

>  <original SMILES>  (47) 
Fc1ccc(-c2cc(NNc3cccnc3-n3cccc3)[nH]n2)nc1

>  <csv_name>  (47) 
green_site_rna_tunnel_fstein_bulkdock_input_split1000_batch000.csv

>  <ref_mols>  (47) 
z0211a,z0628a

>  <distance_score>  (47) 
0.906135

>  <SLURM_JOB_ID>  (47) 
217965

>  <original ID>  (47) 
OBMHGPZNEAUUPR-UHFFFAOYSA-N

>  <HIPPO Pose ID>  (47) 
83392

>  <scratch_subdir>  (47) 
/opt/xchem-fragalysis-2/maxwin/BulkDock/SCRATCH/217965/C66983-P102

>  <fragmenstein_runtime>  (47) 
4.75318

>  <HIPPO Compound ID>  (47) 
66983

>  <fragmenstein_outcome>  (47) 
acceptable

$$$$
83419
     RDKit          3D

 14 15  0  0  0  0  0  0  0  0999 V2000
  -24.9990  -31.2780  -20.0236 C   0  0  0  0  0  0  0  0  0  0  0  0
  -25.9053  -30.9240  -21.1709 C   0  0  0  0  0  0  0  0  0  0  0  0
  -27.2525  -30.3147  -20.9088 C   0  0  0  0  0  0  0  0  0  0  0  0
  -28.0888  -29.9843  -22.0137 C   0  0  0  0  0  0  0  0  0  0  0  0
  -29.3031  -29.5838  -21.6623 N   0  0  0  0  0  0  0  0  0  0  0  0
  -29.2740  -29.6849  -20.3342 N   0  0  0  0  0  0  0  0  0  0  0  0
  -28.0448  -30.0092  -19.7987 C   0  0  0  0  0  0  0  0  0  0  0  0
  -27.9754  -30.0688  -18.3395 C   0  0  0  0  0  0  0  0  0  0  0  0
  -26.8293  -29.9238  -17.5734 C   0  0  0  0  0  0  0  0  0  0  0  0
  -26.9169  -30.0644  -16.1885 C   0  0  0  0  0  0  0  0  0  0  0  0
  -28.1493  -30.3225  -15.6178 C   0  0  0  0  0  0  0  0  0  0  0  0
  -28.2655  -30.4695  -14.2967 F   0  0  0  0  0  0  0  0  0  0  0  0
  -29.2565  -30.4113  -16.4328 C   0  0  0  0  0  0  0  0  0  0  0  0
  -29.1992  -30.2727  -17.7762 N   0  0  0  0  0  0  0  0  0  0  0  0
  1  2  1  0
  2  3  1  0
  3  4  1  0
  4  5  2  0
  5  6  1  0
  6  7  1  0
  7  8  1  0
  8  9  2  0
  9 10  1  0
 10 11  2  0
 11 12  1  0
 11 13  1  0
 13 14  2  0
  7  3  2  0
 14  8  1  0
M  END
>  <inchikey>  (48) 
IXLKKYOTAMQYPU-UHFFFAOYSA-N

>  <fragmenstein_mode>  (48) 
expansion

>  <exports>  (48) 
['/opt/xchem-fragalysis-2/maxwin/BulkDock/OUTPUTS/green_site_rna_tunnel_fstein_bulkdock_input_split1000_batch000_217965.sdf']

>  <name>  (48) 
IXLKKYOTAMQYPU-UHFFFAOYSA-N

>  <ref_pdb>  (48) 
z0215a

>  <alias>  (48) 
None

>  <energy_score>  (48) 
-14.551415

>  <SLURM_JOB_NAME>  (48) 
BulkDock.place:Flavi_NS5_RdRp:green_site_rna_tunnel_fstein_bulkdock_input_split1000_batch000

>  <tags>  (48) 
['Fragmenstein placed']

>  <fragmenstein_error>  (48) 
None

>  <original SMILES>  (48) 
CCc1cn[nH]c1-c1ccc(F)cn1

>  <csv_name>  (48) 
green_site_rna_tunnel_fstein_bulkdock_input_split1000_batch000.csv

>  <ref_mols>  (48) 
z0041a,z0215a

>  <distance_score>  (48) 
0.619109

>  <SLURM_JOB_ID>  (48) 
217965

>  <original ID>  (48) 
IXLKKYOTAMQYPU-UHFFFAOYSA-N

>  <HIPPO Pose ID>  (48) 
83419

>  <scratch_subdir>  (48) 
/opt/xchem-fragalysis-2/maxwin/BulkDock/SCRATCH/217965/C67005-P104

>  <fragmenstein_runtime>  (48) 
1.309471

>  <HIPPO Compound ID>  (48) 
67005

>  <fragmenstein_outcome>  (48) 
acceptable

$$$$
83422
     RDKit          3D

 13 15  0  0  0  0  0  0  0  0999 V2000
  -28.5621  -30.5841  -14.4082 F   0  0  0  0  0  0  0  0  0  0  0  0
  -28.3543  -30.0272  -15.6286 C   0  0  1  0  0  0  0  0  0  0  0  0
  -26.9215  -30.3037  -16.0595 C   0  0  0  0  0  0  0  0  0  0  0  0
  -26.6363  -29.7765  -17.4730 C   0  0  0  0  0  0  0  0  0  0  0  0
  -27.9206  -29.4175  -18.2255 C   0  0  1  0  0  0  0  0  0  0  0  0
  -27.8461  -29.2532  -19.7389 C   0  0  1  0  0  0  0  0  0  0  0  0
  -26.9334  -30.1685  -20.5389 C   0  0  0  0  0  0  0  0  0  0  0  0
  -27.6777  -30.2947  -21.8440 C   0  0  0  0  0  0  0  0  0  0  0  0
  -29.0668  -30.4534  -21.4146 N   0  0  0  0  0  0  0  0  0  0  0  0
  -29.2415  -29.5886  -20.2444 C   0  0  1  0  0  0  0  0  0  0  0  0
  -29.9733  -30.1800  -19.0302 C   0  0  0  0  0  0  0  0  0  0  0  0
  -28.9312  -30.4540  -18.0411 N   0  0  0  0  0  0  0  0  0  0  0  0
  -29.3827  -30.5645  -16.6464 C   0  0  0  0  0  0  0  0  0  0  0  0
  2  1  1  1
  2  3  1  0
  3  4  1  0
  5  4  1  6
  5  6  1  0
  6  7  1  6
  7  8  1  0
  8  9  1  0
  9 10  1  0
 10 11  1  1
 11 12  1  0
 12 13  1  0
 13  2  1  0
 12  5  1  0
 10  6  1  0
M  END
>  <inchikey>  (49) 
JZULBZOWCLLDPL-XKNYDFJKSA-N

>  <fragmenstein_mode>  (49) 
expansion

>  <exports>  (49) 
['/opt/xchem-fragalysis-2/maxwin/BulkDock/OUTPUTS/green_site_rna_tunnel_fstein_bulkdock_input_split1000_batch000_217965.sdf']

>  <name>  (49) 
JZULBZOWCLLDPL-XKNYDFJKSA-N

>  <ref_pdb>  (49) 
z0215a

>  <alias>  (49) 
None

>  <energy_score>  (49) 
-13.804937

>  <SLURM_JOB_NAME>  (49) 
BulkDock.place:Flavi_NS5_RdRp:green_site_rna_tunnel_fstein_bulkdock_input_split1000_batch000

>  <tags>  (49) 
['Fragmenstein placed']

>  <fragmenstein_error>  (49) 
None

>  <original SMILES>  (49) 
F[C@H]1CC[C@H]2[C@H]3CCN[C@H]3CN2C1

>  <csv_name>  (49) 
green_site_rna_tunnel_fstein_bulkdock_input_split1000_batch000.csv

>  <ref_mols>  (49) 
z0215a,z0480a

>  <distance_score>  (49) 
0.931182

>  <SLURM_JOB_ID>  (49) 
217965

>  <original ID>  (49) 
JZULBZOWCLLDPL-XKNYDFJKSA-N

>  <HIPPO Pose ID>  (49) 
83422

>  <scratch_subdir>  (49) 
/opt/xchem-fragalysis-2/maxwin/BulkDock/SCRATCH/217965/C67018-P104

>  <fragmenstein_runtime>  (49) 
1.851877

>  <HIPPO Compound ID>  (49) 
67018

>  <fragmenstein_outcome>  (49) 
acceptable

$$$$
83423
     RDKit          3D

 13 15  0  0  0  0  0  0  0  0999 V2000
  -28.2632  -30.8936  -14.6157 F   0  0  0  0  0  0  0  0  0  0  0  0
  -28.0500  -29.8346  -15.4439 C   0  0  1  0  0  0  0  0  0  0  0  0
  -26.5903  -29.9073  -15.9339 C   0  0  0  0  0  0  0  0  0  0  0  0
  -26.3242  -29.5929  -17.4189 C   0  0  0  0  0  0  0  0  0  0  0  0
  -27.5513  -29.1017  -18.1749 C   0  0  1  0  0  0  0  0  0  0  0  0
  -27.4744  -29.0752  -19.6949 C   0  0  1  0  0  0  0  0  0  0  0  0
  -26.7413  -30.1735  -20.4346 C   0  0  0  0  0  0  0  0  0  0  0  0
  -27.4882  -30.2220  -21.7517 C   0  0  0  0  0  0  0  0  0  0  0  0
  -28.8992  -30.0460  -21.3928 N   0  0  0  0  0  0  0  0  0  0  0  0
  -28.9202  -29.2542  -20.1518 C   0  0  1  0  0  0  0  0  0  0  0  0
  -29.6503  -29.8807  -18.9448 C   0  0  0  0  0  0  0  0  0  0  0  0
  -28.6626  -29.9899  -17.8740 N   0  0  0  0  0  0  0  0  0  0  0  0
  -29.1596  -29.7480  -16.5182 C   0  0  0  0  0  0  0  0  0  0  0  0
  2  1  1  6
  2  3  1  0
  3  4  1  0
  5  4  1  1
  5  6  1  0
  6  7  1  6
  7  8  1  0
  8  9  1  0
  9 10  1  0
 10 11  1  1
 11 12  1  0
 12 13  1  0
 13  2  1  0
 12  5  1  0
 10  6  1  0
M  END
>  <inchikey>  (50) 
JZULBZOWCLLDPL-XKNYDFJKSA-N

>  <fragmenstein_mode>  (50) 
expansion

>  <exports>  (50) 
['/opt/xchem-fragalysis-2/maxwin/BulkDock/OUTPUTS/green_site_rna_tunnel_fstein_bulkdock_input_split1000_batch000_217965.sdf']

>  <name>  (50) 
JZULBZOWCLLDPL-XKNYDFJKSA-N

>  <ref_pdb>  (50) 
z0480a

>  <alias>  (50) 
None

>  <energy_score>  (50) 
-8.961288

>  <SLURM_JOB_NAME>  (50) 
BulkDock.place:Flavi_NS5_RdRp:green_site_rna_tunnel_fstein_bulkdock_input_split1000_batch000

>  <tags>  (50) 
['Fragmenstein placed']

>  <fragmenstein_error>  (50) 
None

>  <original SMILES>  (50) 
F[C@H]1CC[C@H]2[C@H]3CCN[C@H]3CN2C1

>  <csv_name>  (50) 
green_site_rna_tunnel_fstein_bulkdock_input_split1000_batch000.csv

>  <ref_mols>  (50) 
z0215a,z0480a

>  <distance_score>  (50) 
0.996126

>  <SLURM_JOB_ID>  (50) 
217965

>  <original ID>  (50) 
JZULBZOWCLLDPL-XKNYDFJKSA-N

>  <HIPPO Pose ID>  (50) 
83423

>  <scratch_subdir>  (50) 
/opt/xchem-fragalysis-2/maxwin/BulkDock/SCRATCH/217965/C67018-P129

>  <fragmenstein_runtime>  (50) 
1.929091

>  <HIPPO Compound ID>  (50) 
67018

>  <fragmenstein_outcome>  (50) 
acceptable

$$$$
83495
     RDKit          3D

 17 17  0  0  0  0  0  0  0  0999 V2000
  -27.4506  -30.4798  -14.4508 C   0  0  0  0  0  0  0  0  0  0  0  0
  -27.5440  -30.3725  -15.9350 C   0  0  0  0  0  0  0  0  0  0  0  0
  -28.7258  -29.9615  -16.5495 C   0  0  0  0  0  0  0  0  0  0  0  0
  -28.8169  -29.9281  -17.9376 C   0  0  0  0  0  0  0  0  0  0  0  0
  -27.7271  -30.3010  -18.7224 C   0  0  0  0  0  0  0  0  0  0  0  0
  -27.7788  -30.4266  -20.0815 O   0  0  0  0  0  0  0  0  0  0  0  0
  -28.3780  -29.3909  -20.8404 C   0  0  0  0  0  0  0  0  0  0  0  0
  -29.8315  -29.7321  -21.1244 C   0  0  0  0  0  0  0  0  0  0  0  0
  -28.2841  -28.1120  -20.2748 O   0  0  0  0  0  0  0  0  0  0  0  0
  -27.6495  -29.3128  -22.0522 O   0  0  0  0  0  0  0  0  0  0  0  0
  -26.5290  -30.6863  -18.1075 C   0  0  0  0  0  0  0  0  0  0  0  0
  -25.4613  -31.0990  -18.8983 N   0  0  0  0  0  0  0  0  0  0  0  0
  -23.9889  -31.4574  -18.5097 C   0  0  0  0  0  0  0  0  0  0  0  0
  -23.4358  -31.3835  -17.4772 O   0  0  0  0  0  0  0  0  0  0  0  0
  -23.3328  -32.0449  -19.7857 C   0  0  0  0  0  0  0  0  0  0  0  0
  -22.4989  -33.1964  -19.4248 N   0  0  0  0  0  0  0  0  0  0  0  0
  -26.4434  -30.7271  -16.7210 C   0  0  0  0  0  0  0  0  0  0  0  0
  1  2  1  0
  2  3  2  0
  3  4  1  0
  4  5  2  0
  5  6  1  0
  6  7  1  0
  7  8  1  0
  7  9  1  0
  7 10  1  0
  5 11  1  0
 11 12  1  0
 12 13  1  0
 13 14  2  0
 13 15  1  0
 15 16  1  0
 11 17  2  0
 17  2  1  0
M  END
>  <inchikey>  (51) 
WWSFBMQITGZCRY-UHFFFAOYSA-N

>  <fragmenstein_mode>  (51) 
expansion

>  <exports>  (51) 
['/opt/xchem-fragalysis-2/maxwin/BulkDock/OUTPUTS/green_site_rna_tunnel_fstein_bulkdock_input_split1000_batch000_217965.sdf']

>  <name>  (51) 
WWSFBMQITGZCRY-UHFFFAOYSA-N

>  <ref_pdb>  (51) 
z0309a

>  <alias>  (51) 
None

>  <energy_score>  (51) 
-32.551313

>  <SLURM_JOB_NAME>  (51) 
BulkDock.place:Flavi_NS5_RdRp:green_site_rna_tunnel_fstein_bulkdock_input_split1000_batch000

>  <tags>  (51) 
['Fragmenstein placed']

>  <fragmenstein_error>  (51) 
None

>  <original SMILES>  (51) 
Cc1ccc(OC(C)(O)O)c(NC(=O)CN)c1

>  <csv_name>  (51) 
green_site_rna_tunnel_fstein_bulkdock_input_split1000_batch000.csv

>  <ref_mols>  (51) 
z0107a,z0309a

>  <distance_score>  (51) 
0.860028

>  <SLURM_JOB_ID>  (51) 
217965

>  <original ID>  (51) 
WWSFBMQITGZCRY-UHFFFAOYSA-N

>  <HIPPO Pose ID>  (51) 
83495

>  <scratch_subdir>  (51) 
/opt/xchem-fragalysis-2/maxwin/BulkDock/SCRATCH/217965/C67085-P113

>  <fragmenstein_runtime>  (51) 
3.233842

>  <HIPPO Compound ID>  (51) 
67085

>  <fragmenstein_outcome>  (51) 
acceptable

$$$$
83543
     RDKit          3D

 22 23  0  0  0  0  0  0  0  0999 V2000
  -29.3346  -31.6271  -14.4166 C   0  0  0  0  0  0  0  0  0  0  0  0
  -27.9805  -31.2458  -14.9625 C   0  0  0  0  0  0  0  0  0  0  0  0
  -26.9796  -31.2451  -14.2503 O   0  0  0  0  0  0  0  0  0  0  0  0
  -27.8735  -30.9034  -16.4058 C   0  0  0  0  0  0  0  0  0  0  0  0
  -28.9994  -30.6039  -17.1815 C   0  0  0  0  0  0  0  0  0  0  0  0
  -28.8767  -30.3665  -18.5588 C   0  0  0  0  0  0  0  0  0  0  0  0
  -30.1198  -30.2004  -19.3794 C   0  0  0  0  0  0  0  0  0  0  0  0
  -27.5983  -30.3888  -19.1232 C   0  0  0  0  0  0  0  0  0  0  0  0
  -27.3956  -30.1682  -20.4650 O   0  0  0  0  0  0  0  0  0  0  0  0
  -26.4489  -30.6759  -18.3577 C   0  0  0  0  0  0  0  0  0  0  0  0
  -25.1940  -30.6183  -19.0127 N   0  0  0  0  0  0  0  0  0  0  0  0
  -23.9933  -31.1489  -18.5921 C   0  0  0  0  0  0  0  0  0  0  0  0
  -23.3086  -30.6531  -17.5266 C   0  0  0  0  0  0  0  0  0  0  0  0
  -23.7127  -29.5126  -16.6397 C   0  0  0  0  0  0  0  0  0  0  0  0
  -22.0092  -31.0757  -17.2796 O   0  0  0  0  0  0  0  0  0  0  0  0
  -23.3651  -32.1348  -19.3748 N   0  0  0  0  0  0  0  0  0  0  0  0
  -23.0649  -33.4712  -18.7981 C   0  0  0  0  0  0  0  0  0  0  0  0
  -23.4375  -34.5925  -19.7796 C   0  0  0  0  0  0  0  0  0  0  0  0
  -22.7419  -34.5111  -21.0345 O   0  0  0  0  0  0  0  0  0  0  0  0
  -22.4612  -33.1562  -21.4328 C   0  0  0  0  0  0  0  0  0  0  0  0
  -23.4508  -32.1393  -20.8510 C   0  0  0  0  0  0  0  0  0  0  0  0
  -26.6085  -30.9439  -16.9987 C   0  0  0  0  0  0  0  0  0  0  0  0
  1  2  1  0
  2  3  2  0
  2  4  1  0
  4  5  2  0
  5  6  1  0
  6  7  1  0
  6  8  2  0
  8  9  1  0
  8 10  1  0
 10 11  1  0
 11 12  1  0
 12 13  2  3
 13 14  1  0
 13 15  1  0
 12 16  1  0
 16 17  1  0
 17 18  1  0
 18 19  1  0
 19 20  1  0
 20 21  1  0
 10 22  2  0
 22  4  1  0
 21 16  1  0
M  END
>  <inchikey>  (52) 
YQLKORJDBKIHQX-UHFFFAOYSA-N

>  <fragmenstein_mode>  (52) 
expansion

>  <exports>  (52) 
['/opt/xchem-fragalysis-2/maxwin/BulkDock/OUTPUTS/green_site_rna_tunnel_fstein_bulkdock_input_split1000_batch000_217965.sdf']

>  <name>  (52) 
YQLKORJDBKIHQX-UHFFFAOYSA-N

>  <ref_pdb>  (52) 
z1041a

>  <alias>  (52) 
None

>  <energy_score>  (52) 
-90.13897

>  <SLURM_JOB_NAME>  (52) 
BulkDock.place:Flavi_NS5_RdRp:green_site_rna_tunnel_fstein_bulkdock_input_split1000_batch000

>  <tags>  (52) 
['Fragmenstein placed']

>  <fragmenstein_error>  (52) 
None

>  <original SMILES>  (52) 
CC(=O)c1cc(C)c(O)c(NC(=C(C)O)N2CCOCC2)c1

>  <csv_name>  (52) 
green_site_rna_tunnel_fstein_bulkdock_input_split1000_batch000.csv

>  <ref_mols>  (52) 
z0309a,z1041a

>  <distance_score>  (52) 
0.927071

>  <SLURM_JOB_ID>  (52) 
217965

>  <original ID>  (52) 
YQLKORJDBKIHQX-UHFFFAOYSA-N

>  <HIPPO Pose ID>  (52) 
83543

>  <scratch_subdir>  (52) 
/opt/xchem-fragalysis-2/maxwin/BulkDock/SCRATCH/217965/C67115-P210

>  <fragmenstein_runtime>  (52) 
3.40797

>  <HIPPO Compound ID>  (52) 
67115

>  <fragmenstein_outcome>  (52) 
acceptable

$$$$
83592
     RDKit          3D

 22 23  0  0  0  0  0  0  0  0999 V2000
  -28.6738  -34.7734  -15.9578 C   0  0  0  0  0  0  0  0  0  0  0  0
  -27.9647  -33.5815  -15.3524 C   0  0  0  0  0  0  0  0  0  0  0  0
  -27.3459  -33.6348  -14.3668 O   0  0  0  0  0  0  0  0  0  0  0  0
  -28.2782  -32.3806  -16.2747 N   0  0  0  0  0  0  0  0  0  0  0  0
  -27.8110  -31.0025  -16.2241 C   0  0  1  0  0  0  0  0  0  0  0  0
  -26.3572  -30.8868  -16.7029 C   0  0  0  0  0  0  0  0  0  0  0  0
  -26.2217  -31.3288  -18.1011 N   0  0  0  0  0  0  0  0  0  0  0  0
  -27.1336  -30.6971  -18.9924 C   0  0  0  0  0  0  0  0  0  0  0  0
  -28.3542  -30.1665  -18.5371 C   0  0  0  0  0  0  0  0  0  0  0  0
  -29.2852  -29.6827  -19.4639 C   0  0  0  0  0  0  0  0  0  0  0  0
  -28.9912  -29.6379  -20.8200 C   0  0  0  0  0  0  0  0  0  0  0  0
  -27.7973  -30.1765  -21.2786 C   0  0  0  0  0  0  0  0  0  0  0  0
  -26.9068  -30.7665  -20.3827 C   0  0  0  0  0  0  0  0  0  0  0  0
  -25.8409  -31.5207  -20.8649 N   0  0  0  0  0  0  0  0  0  0  0  0
  -25.4002  -31.8249  -22.3318 C   0  0  0  0  0  0  0  0  0  0  0  0
  -25.8117  -31.4332  -23.3200 O   0  0  0  0  0  0  0  0  0  0  0  0
  -24.3075  -32.8933  -22.0530 N   0  0  0  0  0  0  0  0  0  0  0  0
  -23.4497  -33.6115  -22.9639 C   0  0  0  0  0  0  0  0  0  0  0  0
  -22.4359  -32.6955  -23.6503 C   0  0  1  0  0  0  0  0  0  0  0  0
  -21.2745  -32.3874  -22.7219 C   0  0  0  0  0  0  0  0  0  0  0  0
  -21.9181  -33.3295  -24.8222 O   0  0  0  0  0  0  0  0  0  0  0  0
  -28.6842  -30.0771  -17.0677 C   0  0  0  0  0  0  0  0  0  0  0  0
  1  2  1  0
  2  3  2  0
  2  4  1  0
  5  4  1  6
  5  6  1  0
  6  7  1  0
  7  8  1  0
  8  9  2  0
  9 10  1  0
 10 11  2  0
 11 12  1  0
 12 13  2  0
 13 14  1  0
 14 15  1  0
 15 16  2  0
 15 17  1  0
 17 18  1  0
 18 19  1  0
 19 20  1  1
 19 21  1  0
  9 22  1  0
 22  5  1  0
 13  8  1  0
M  END
>  <inchikey>  (53) 
QAOBJMFSMGJXNY-BXKDBHETSA-N

>  <fragmenstein_mode>  (53) 
expansion

>  <exports>  (53) 
['/opt/xchem-fragalysis-2/maxwin/BulkDock/OUTPUTS/green_site_rna_tunnel_fstein_bulkdock_input_split1000_batch000_217965.sdf']

>  <name>  (53) 
QAOBJMFSMGJXNY-BXKDBHETSA-N

>  <ref_pdb>  (53) 
z0351a

>  <alias>  (53) 
None

>  <energy_score>  (53) 
-40.821645

>  <SLURM_JOB_NAME>  (53) 
BulkDock.place:Flavi_NS5_RdRp:green_site_rna_tunnel_fstein_bulkdock_input_split1000_batch000

>  <tags>  (53) 
['Fragmenstein placed']

>  <fragmenstein_error>  (53) 
None

>  <original SMILES>  (53) 
CC(=O)N[C@H]1CNc2c(cccc2NC(=O)NC[C@@H](C)O)C1

>  <csv_name>  (53) 
green_site_rna_tunnel_fstein_bulkdock_input_split1000_batch000.csv

>  <ref_mols>  (53) 
z0351a,z0764a

>  <distance_score>  (53) 
0.787423

>  <SLURM_JOB_ID>  (53) 
217965

>  <original ID>  (53) 
QAOBJMFSMGJXNY-BXKDBHETSA-N

>  <HIPPO Pose ID>  (53) 
83592

>  <scratch_subdir>  (53) 
/opt/xchem-fragalysis-2/maxwin/BulkDock/SCRATCH/217965/C67145-P115

>  <fragmenstein_runtime>  (53) 
5.951566

>  <HIPPO Compound ID>  (53) 
67145

>  <fragmenstein_outcome>  (53) 
acceptable

$$$$
83723
     RDKit          3D

 22 23  0  0  0  0  0  0  0  0999 V2000
  -17.5181  -34.8426  -20.3922 C   0  0  0  0  0  0  0  0  0  0  0  0
  -18.6125  -33.8120  -20.1600 C   0  0  0  0  0  0  0  0  0  0  0  0
  -19.8480  -34.2607  -20.7957 N   0  0  0  0  0  0  0  0  0  0  0  0
  -20.9346  -33.2774  -20.6478 C   0  0  0  0  0  0  0  0  0  0  0  0
  -20.9155  -32.1647  -21.7128 C   0  0  0  0  0  0  0  0  0  0  0  0
  -21.5049  -32.6051  -23.0226 C   0  0  0  0  0  0  0  0  0  0  0  0
  -20.7947  -33.1226  -24.0912 C   0  0  0  0  0  0  0  0  0  0  0  0
  -21.7037  -33.3842  -25.1127 C   0  0  0  0  0  0  0  0  0  0  0  0
  -21.4504  -33.9192  -26.3129 O   0  0  0  0  0  0  0  0  0  0  0  0
  -22.9460  -33.0077  -24.6937 C   0  0  0  0  0  0  0  0  0  0  0  0
  -22.8514  -32.5186  -23.3951 N   0  0  0  0  0  0  0  0  0  0  0  0
  -23.9417  -32.0545  -22.6534 C   0  0  0  0  0  0  0  0  0  0  0  0
  -24.0520  -31.7739  -21.3110 C   0  0  0  0  0  0  0  0  0  0  0  0
  -25.3699  -31.2949  -21.0454 C   0  0  0  0  0  0  0  0  0  0  0  0
  -25.8631  -30.9693  -19.6723 C   0  0  0  0  0  0  0  0  0  0  0  0
  -26.7281  -29.7519  -19.3814 C   0  0  1  0  0  0  0  0  0  0  0  0
  -28.1858  -29.4117  -20.6242 Br  0  0  0  0  0  0  0  0  0  0  0  0
  -27.2516  -29.6000  -17.9365 C   0  0  0  0  0  0  0  0  0  0  0  0
  -28.6183  -30.2121  -17.6517 C   0  0  0  0  0  0  0  0  0  0  0  0
  -26.2140  -30.0199  -16.8963 C   0  0  0  0  0  0  0  0  0  0  0  0
  -26.0213  -31.3252  -22.2571 C   0  0  0  0  0  0  0  0  0  0  0  0
  -25.1600  -31.7849  -23.2195 N   0  0  0  0  0  0  0  0  0  0  0  0
  1  2  1  0
  2  3  1  0
  3  4  1  0
  4  5  1  0
  5  6  1  0
  6  7  2  0
  7  8  1  0
  8  9  1  0
  8 10  2  0
 10 11  1  0
 11 12  1  0
 12 13  2  0
 13 14  1  0
 14 15  1  0
 15 16  1  0
 16 17  1  6
 16 18  1  0
 18 19  1  0
 18 20  1  0
 14 21  2  0
 21 22  1  0
 11  6  1  0
 22 12  1  0
M  END
>  <inchikey>  (54) 
BGZYMNKCMFPPKF-MRXNPFEDSA-N

>  <fragmenstein_mode>  (54) 
expansion

>  <exports>  (54) 
['/opt/xchem-fragalysis-2/maxwin/BulkDock/OUTPUTS/green_site_rna_tunnel_fstein_bulkdock_input_split1000_batch000_217965.sdf']

>  <name>  (54) 
BGZYMNKCMFPPKF-MRXNPFEDSA-N

>  <ref_pdb>  (54) 
z0995a

>  <alias>  (54) 
None

>  <energy_score>  (54) 
-79.266726

>  <SLURM_JOB_NAME>  (54) 
BulkDock.place:Flavi_NS5_RdRp:green_site_rna_tunnel_fstein_bulkdock_input_split1000_batch000

>  <tags>  (54) 
['Fragmenstein placed']

>  <fragmenstein_error>  (54) 
None

>  <original SMILES>  (54) 
CCNCCc1cc(O)cn1-c1cc(C[C@@H](Br)C(C)C)c[nH]1

>  <csv_name>  (54) 
green_site_rna_tunnel_fstein_bulkdock_input_split1000_batch000.csv

>  <ref_mols>  (54) 
z0411a,z0995a

>  <distance_score>  (54) 
0.864544

>  <SLURM_JOB_ID>  (54) 
217965

>  <original ID>  (54) 
BGZYMNKCMFPPKF-MRXNPFEDSA-N

>  <HIPPO Pose ID>  (54) 
83723

>  <scratch_subdir>  (54) 
/opt/xchem-fragalysis-2/maxwin/BulkDock/SCRATCH/217965/C67308-P203

>  <fragmenstein_runtime>  (54) 
4.971905

>  <HIPPO Compound ID>  (54) 
67308

>  <fragmenstein_outcome>  (54) 
acceptable

$$$$
83777
     RDKit          3D

 19 20  0  0  0  0  0  0  0  0999 V2000
  -21.5121  -34.2359  -24.9913 C   0  0  0  0  0  0  0  0  0  0  0  0
  -22.2840  -33.2510  -24.2597 N   0  0  0  0  0  0  0  0  0  0  0  0
  -23.6758  -33.2236  -24.7066 C   0  0  0  0  0  0  0  0  0  0  0  0
  -24.3994  -32.0533  -24.0308 C   0  0  0  0  0  0  0  0  0  0  0  0
  -24.4851  -32.2188  -22.5643 N   0  0  0  0  0  0  0  0  0  0  0  0
  -25.0692  -30.9913  -21.9577 C   0  0  1  0  0  0  0  0  0  0  0  0
  -26.3571  -30.5720  -22.6205 N   0  0  0  0  0  0  0  0  0  0  0  0
  -26.2372  -29.6168  -23.3981 O   0  0  0  0  0  0  0  0  0  0  0  0
  -25.2128  -31.0592  -20.4986 N   0  0  0  0  0  0  0  0  0  0  0  0
  -26.0217  -30.2804  -19.6841 C   0  0  0  0  0  0  0  0  0  0  0  0
  -25.5136  -29.9164  -18.4221 C   0  0  0  0  0  0  0  0  0  0  0  0
  -26.3089  -29.2879  -17.4587 C   0  0  0  0  0  0  0  0  0  0  0  0
  -27.6431  -29.0493  -17.7411 C   0  0  0  0  0  0  0  0  0  0  0  0
  -28.4532  -28.5473  -16.7979 F   0  0  0  0  0  0  0  0  0  0  0  0
  -28.1610  -29.3978  -18.9752 C   0  0  0  0  0  0  0  0  0  0  0  0
  -29.4678  -29.1437  -19.2202 O   0  0  0  0  0  0  0  0  0  0  0  0
  -27.3742  -30.0318  -19.9274 C   0  0  0  0  0  0  0  0  0  0  0  0
  -23.1029  -32.4124  -22.0377 C   0  0  0  0  0  0  0  0  0  0  0  0
  -22.2655  -33.4751  -22.8007 C   0  0  0  0  0  0  0  0  0  0  0  0
  1  2  1  0
  2  3  1  0
  3  4  1  0
  4  5  1  0
  5  6  1  0
  6  7  1  0
  7  8  2  0
  6  9  1  1
  9 10  1  0
 10 11  2  0
 11 12  1  0
 12 13  2  0
 13 14  1  0
 13 15  1  0
 15 16  1  0
 15 17  2  0
  5 18  1  0
 18 19  1  0
 19  2  1  0
 17 10  1  0
M  END
>  <inchikey>  (55) 
JJNYTXOTMRHCFP-GFCCVEGCSA-N

>  <fragmenstein_mode>  (55) 
expansion

>  <exports>  (55) 
['/opt/xchem-fragalysis-2/maxwin/BulkDock/OUTPUTS/green_site_rna_tunnel_fstein_bulkdock_input_split1000_batch000_217965.sdf']

>  <name>  (55) 
JJNYTXOTMRHCFP-GFCCVEGCSA-N

>  <ref_pdb>  (55) 
z0483a

>  <alias>  (55) 
None

>  <energy_score>  (55) 
-45.072368

>  <SLURM_JOB_NAME>  (55) 
BulkDock.place:Flavi_NS5_RdRp:green_site_rna_tunnel_fstein_bulkdock_input_split1000_batch000

>  <tags>  (55) 
['Fragmenstein placed']

>  <fragmenstein_error>  (55) 
None

>  <original SMILES>  (55) 
CN1CCN([C@@H](N=O)Nc2ccc(F)c(O)c2)CC1

>  <csv_name>  (55) 
green_site_rna_tunnel_fstein_bulkdock_input_split1000_batch000.csv

>  <ref_mols>  (55) 
d0378a,z0483a

>  <distance_score>  (55) 
0.9194

>  <SLURM_JOB_ID>  (55) 
217965

>  <original ID>  (55) 
JJNYTXOTMRHCFP-GFCCVEGCSA-N

>  <HIPPO Pose ID>  (55) 
83777

>  <scratch_subdir>  (55) 
/opt/xchem-fragalysis-2/maxwin/BulkDock/SCRATCH/217965/C67358-P133

>  <fragmenstein_runtime>  (55) 
2.903079

>  <HIPPO Compound ID>  (55) 
67358

>  <fragmenstein_outcome>  (55) 
acceptable

$$$$
