DNV2_NS5A-x0866_A_2101_1_DNV2_NS5A-x0254+A+1701+1
     RDKit          3D

 18 19  0  0  0  0  0  0  0  0999 V2000
  -19.2180  -37.4550  -26.5100 O   0  0  0  0  0  0  0  0  0  0  0  0
  -18.4400  -37.2730  -25.5890 C   0  0  0  0  0  0  0  0  0  0  0  0
  -18.6770  -36.3320  -24.6480 N   0  0  0  0  0  0  0  0  0  0  0  0
  -18.1290  -36.3040  -23.2850 C   0  0  0  0  0  0  0  0  0  0  0  0
  -19.0890  -35.3970  -22.5410 C   0  0  0  0  0  0  0  0  0  0  0  0
  -19.5290  -34.4120  -23.5740 C   0  0  0  0  0  0  0  0  0  0  0  0
  -19.5820  -35.1970  -24.8780 C   0  0  0  0  0  0  0  0  0  0  0  0
  -17.1840  -38.1190  -25.4620 C   0  0  1  0  0  0  0  0  0  0  0  0
  -17.4720  -39.4270  -24.6890 C   0  0  1  0  0  0  0  0  0  0  0  0
  -18.8010  -40.0660  -25.0770 C   0  0  0  0  0  0  0  0  0  0  0  0
  -16.6310  -38.4350  -26.8550 C   0  0  0  0  0  0  0  0  0  0  0  0
  -15.4020  -39.3250  -26.7650 C   0  0  0  0  0  0  0  0  0  0  0  0
  -15.7420  -40.6350  -26.0990 C   0  0  0  0  0  0  0  0  0  0  0  0
  -16.3500  -40.4180  -24.7640 N   0  0  0  0  0  0  0  0  0  0  0  0
  -16.2910  -41.6740  -23.7260 S   0  0  0  0  0  0  0  0  0  0  0  0
  -16.8320  -41.2150  -22.4870 O   0  0  0  0  0  0  0  0  0  0  0  0
  -16.9140  -42.7800  -24.3830 O   0  0  0  0  0  0  0  0  0  0  0  0
  -14.6010  -42.0660  -23.4770 C   0  0  0  0  0  0  0  0  0  0  0  0
  9 10  1  6
  9 14  1  0
 15 14  1  0
 16 15  2  0
 18 15  1  0
 17 15  2  0
 14 13  1  0
 13 12  1  0
 12 11  1  0
 11  8  1  0
  9  8  1  0
  8  2  1  6
  3  2  1  0
  3  7  1  0
  7  6  1  0
  6  5  1  0
  5  4  1  0
  4  3  1  0
  2  1  2  0
M  END
$$$$

