Zika_NS5A-x0991_A_1014_1_Zika_NS5A-x0351+A+1112+1
     RDKit          3D

 15 16  0  0  0  0  0  0  0  0999 V2000
  -25.1300  -27.1920  -21.9810 O   0  0  0  0  0  0  0  0  0  0  0  0
  -25.0680  -27.3340  -20.5600 S   0  0  0  0  0  0  0  0  0  0  0  0
  -25.6810  -26.3350  -19.7380 O   0  0  0  0  0  0  0  0  0  0  0  0
  -23.3870  -27.4480  -20.0860 C   0  0  0  0  0  0  0  0  0  0  0  0
  -25.7790  -28.7650  -20.2170 N   0  0  0  0  0  0  0  0  0  0  0  0
  -27.2410  -28.9130  -20.0120 C   0  0  2  0  0  0  0  0  0  0  0  0
  -27.6070  -29.4620  -18.6480 C   0  0  0  0  0  0  0  0  0  0  0  0
  -26.7130  -29.4760  -17.5790 C   0  0  0  0  0  0  0  0  0  0  0  0
  -27.1430  -29.8130  -16.3030 C   0  0  0  0  0  0  0  0  0  0  0  0
  -28.4660  -30.1340  -16.0810 C   0  0  0  0  0  0  0  0  0  0  0  0
  -29.3650  -30.1580  -17.1360 C   0  0  0  0  0  0  0  0  0  0  0  0
  -28.9170  -29.8490  -18.4090 C   0  0  0  0  0  0  0  0  0  0  0  0
  -29.7930  -30.0150  -19.4470 O   0  0  0  0  0  0  0  0  0  0  0  0
  -29.1330  -30.4950  -20.6480 C   0  0  0  0  0  0  0  0  0  0  0  0
  -27.9280  -29.7000  -21.1250 C   0  0  0  0  0  0  0  0  0  0  0  0
  4  2  1  0
  3  2  2  0
  2  1  2  0
  5  2  1  0
  6  5  1  6
  6 15  1  0
 15 14  1  0
 14 13  1  0
 13 12  1  0
 12 11  2  0
 11 10  1  0
 10  9  2  0
  9  8  1  0
  8  7  2  0
  7  6  1  0
 12  7  1  0
M  END
$$$$

