Zika_NS5A-x0764_A_1201_1_Zika_NS5A-x0411+A+1104+1
     RDKit          3D

 11 11  0  0  0  0  0  0  0  0999 V2000
  -13.6370  -24.1730  -20.6680 O   0  0  0  0  0  0  0  0  0  0  0  0
  -14.3770  -24.3310  -19.4480 S   0  0  0  0  0  0  0  0  0  0  0  0
  -14.6440  -25.6630  -18.9870 O   0  0  0  0  0  0  0  0  0  0  0  0
  -13.5500  -23.4590  -18.1720 C   0  0  0  0  0  0  0  0  0  0  0  0
  -15.9230  -23.4910  -19.6260 C   0  0  0  0  0  0  0  0  0  0  0  0
  -15.9390  -22.1220  -19.8400 C   0  0  0  0  0  0  0  0  0  0  0  0
  -17.1430  -21.4860  -20.0650 C   0  0  0  0  0  0  0  0  0  0  0  0
  -17.1010  -24.2210  -19.6060 C   0  0  0  0  0  0  0  0  0  0  0  0
  -18.3010  -23.5790  -19.8360 C   0  0  0  0  0  0  0  0  0  0  0  0
  -18.3010  -22.2250  -20.0730 C   0  0  0  0  0  0  0  0  0  0  0  0
  -19.9410  -21.3610  -20.4420 Br  0  0  0  0  0  0  0  0  0  0  0  0
 11 10  1  0
 10  7  2  0
  7  6  1  0
  6  5  2  0
  5  2  1  0
  4  2  1  0
  3  2  2  0
  2  1  2  0
  8  5  1  0
  9  8  2  0
 10  9  1  0
M  END
$$$$

