6izz_A_903_1_6izz+A+903+1
     RDKit          3D

 14 15  0  0  0  0  0  0  0  0999 V2000
  -30.7720  -58.6550  -20.4010 C   0  0  0  0  0  0  0  0  0  0  0  0
  -29.8170  -60.3470  -22.1360 C   0  0  0  0  0  0  0  0  0  0  0  0
  -28.8290  -64.1270  -26.2590 C   0  0  0  0  0  0  0  0  0  0  0  0
  -28.9340  -63.5910  -24.8290 C   0  0  0  0  0  0  0  0  0  0  0  0
  -28.2710  -61.7970  -23.3180 C   0  0  0  0  0  0  0  0  0  0  0  0
  -27.2450  -61.4910  -22.3540 C   0  0  0  0  0  0  0  0  0  0  0  0
  -27.5110  -60.6130  -21.2790 C   0  0  0  0  0  0  0  0  0  0  0  0
  -28.7630  -60.0440  -21.1480 C   0  0  0  0  0  0  0  0  0  0  0  0
  -29.5500  -61.2030  -23.1860 C   0  0  0  0  0  0  0  0  0  0  0  0
  -29.8140  -63.9780  -24.1280 O   0  0  0  0  0  0  0  0  0  0  0  0
  -27.9680  -62.6650  -24.3810 O   0  0  0  0  0  0  0  0  0  0  0  0
  -29.3780  -58.9980  -20.0300 O   0  0  0  0  0  0  0  0  0  0  0  0
  -31.4700  -57.8790  -19.8420 O   0  0  0  0  0  0  0  0  0  0  0  0
  -31.1650  -59.5330  -21.7140 S   0  0  0  0  0  0  0  0  0  0  0  0
 12  8  1  0
 12  1  1  0
  7  8  2  0
  7  6  1  0
 13  1  2  0
  8  2  1  0
  1 14  1  0
  6  5  2  0
  2 14  1  0
  2  9  2  0
  5  9  1  0
  5 11  1  0
 11  4  1  0
  4 10  2  0
  4  3  1  0
M  END
$$$$

