Zika_NS5A-x1040_A_1204_1_Zika_NS5A-x0351+A+1112+1
     RDKit          3D

 12 13  0  0  0  0  0  0  0  0999 V2000
  -24.4130  -30.4810  -16.2440 C   0  0  0  0  0  0  0  0  0  0  0  0
  -25.0350  -30.4490  -17.5480 N   0  0  0  0  0  0  0  0  0  0  0  0
  -26.3820  -30.3770  -17.7220 C   0  0  0  0  0  0  0  0  0  0  0  0
  -26.7710  -30.2300  -18.9810 N   0  0  0  0  0  0  0  0  0  0  0  0
  -28.1160  -30.1920  -19.2360 C   0  0  0  0  0  0  0  0  0  0  0  0
  -29.0760  -30.3170  -18.2040 C   0  0  0  0  0  0  0  0  0  0  0  0
  -28.6080  -30.4480  -16.8770 C   0  0  0  0  0  0  0  0  0  0  0  0
  -27.2710  -30.4820  -16.6230 C   0  0  0  0  0  0  0  0  0  0  0  0
  -28.5520  -30.0240  -20.5700 C   0  0  0  0  0  0  0  0  0  0  0  0
  -29.8820  -30.0300  -20.8630 C   0  0  0  0  0  0  0  0  0  0  0  0
  -30.8250  -30.1900  -19.8590 C   0  0  0  0  0  0  0  0  0  0  0  0
  -30.4410  -30.3200  -18.5540 C   0  0  0  0  0  0  0  0  0  0  0  0
  2  1  1  0
  3  2  1  0
  3  8  2  0
  8  7  1  0
  7  6  2  0
  6 12  1  0
 12 11  2  0
 11 10  1  0
 10  9  2  0
  9  5  1  0
  6  5  1  0
  5  4  2  0
  4  3  1  0
M  END
$$$$

