Zika_NS5A-x0215_A_1112_1_Zika_NS5A-x0351+A+1112+1
     RDKit          3D

 12 13  0  0  0  0  0  0  0  0999 V2000
  -28.0730  -30.6860  -14.1880 F   0  0  0  0  0  0  0  0  0  0  0  0
  -28.0780  -30.4490  -15.5200 C   0  0  0  0  0  0  0  0  0  0  0  0
  -29.2700  -30.2450  -16.1640 C   0  0  0  0  0  0  0  0  0  0  0  0
  -29.3240  -30.0520  -17.4900 N   0  0  0  0  0  0  0  0  0  0  0  0
  -28.1640  -30.0640  -18.1700 C   0  0  0  0  0  0  0  0  0  0  0  0
  -26.9290  -30.2510  -17.5590 C   0  0  0  0  0  0  0  0  0  0  0  0
  -26.8960  -30.4490  -16.1920 C   0  0  0  0  0  0  0  0  0  0  0  0
  -28.2710  -29.9050  -19.6250 C   0  0  0  0  0  0  0  0  0  0  0  0
  -29.4610  -29.8240  -20.2350 N   0  0  0  0  0  0  0  0  0  0  0  0
  -29.1770  -29.6760  -21.5490 N   0  0  0  0  0  0  0  0  0  0  0  0
  -27.8590  -29.6660  -21.7770 C   0  0  0  0  0  0  0  0  0  0  0  0
  -27.2340  -29.8110  -20.5710 C   0  0  0  0  0  0  0  0  0  0  0  0
  2  1  1  0
  2  7  2  0
  7  6  1  0
  6  5  2  0
  5  4  1  0
  4  3  2  0
  3  2  1  0
  8  5  1  0
  8 12  1  0
 12 11  2  0
 11 10  1  0
 10  9  1  0
  9  8  2  0
M  END
$$$$

