Zika_NS5A-x0812_A_1013_1_Zika_NS5A-x0812+A+1013+1
     RDKit          3D

  7  7  0  0  0  0  0  0  0  0999 V2000
   14.5830  -30.0910  -27.9330 O   0  0  0  0  0  0  0  0  0  0  0  0
   13.9220  -29.3510  -27.2110 C   0  0  0  0  0  0  0  0  0  0  0  0
   14.3660  -28.7150  -25.9270 C   0  0  0  0  0  0  0  0  0  0  0  0
   13.2080  -27.8250  -25.5100 C   0  0  0  0  0  0  0  0  0  0  0  0
   12.6320  -28.9580  -27.4600 N   0  0  0  0  0  0  0  0  0  0  0  0
   12.1310  -28.0940  -26.5220 C   0  0  0  0  0  0  0  0  0  0  0  0
   10.9920  -27.6330  -26.5260 O   0  0  0  0  0  0  0  0  0  0  0  0
  7  6  2  0
  6  4  1  0
  4  3  1  0
  3  2  1  0
  2  1  2  0
  5  2  1  0
  6  5  1  0
M  END
$$$$

