Zika_NS5A-x1024_A_1101_1_Zika_NS5A-x0111+A+1112+1
     RDKit          3D

 12 12  0  0  0  0  0  0  0  0999 V2000
   -7.7270  -36.9720  -45.3960 O   0  0  0  0  0  0  0  0  0  0  0  0
   -6.7210  -36.4770  -44.8810 C   0  0  0  0  0  0  0  0  0  0  0  0
   -6.2400  -35.2950  -45.2330 N   0  0  0  0  0  0  0  0  0  0  0  0
   -5.9690  -37.2300  -43.8030 C   0  0  0  0  0  0  0  0  0  0  0  0
   -5.7410  -38.6630  -44.2050 C   0  0  0  0  0  0  0  0  0  0  0  0
   -5.0120  -39.1310  -45.3220 C   0  0  0  0  0  0  0  0  0  0  0  0
   -4.2290  -38.3370  -46.3150 C   0  0  0  0  0  0  0  0  0  0  0  0
   -6.2560  -39.8350  -43.6430 C   0  0  0  0  0  0  0  0  0  0  0  0
   -7.0580  -39.9990  -42.3980 C   0  0  0  0  0  0  0  0  0  0  0  0
   -5.8630  -40.8540  -44.4160 N   0  0  0  0  0  0  0  0  0  0  0  0
   -5.0860  -40.4440  -45.4470 N   0  0  0  0  0  0  0  0  0  0  0  0
   -6.2020  -42.2640  -44.2990 C   0  0  0  0  0  0  0  0  0  0  0  0
  7  6  1  0
  6 11  2  0
 11 10  1  0
 12 10  1  0
 10  8  1  0
  9  8  1  0
  8  5  2  0
  6  5  1  0
  5  4  1  0
  4  2  1  0
  2  1  2  0
  3  2  1  0
M  END
$$$$

