Zika_NS5A-x0625_A_1201_1_Zika_NS5A-x0625+A+1201+1
     RDKit          3D

 13 13  0  0  0  0  0  0  0  0999 V2000
   -2.9950  -16.8640  -19.4940 O   0  0  0  0  0  0  0  0  0  0  0  0
   -3.5230  -17.0240  -18.1780 S   0  0  0  0  0  0  0  0  0  0  0  0
   -4.8730  -17.4400  -17.9820 O   0  0  0  0  0  0  0  0  0  0  0  0
   -3.3220  -15.6570  -17.3940 N   0  0  0  0  0  0  0  0  0  0  0  0
   -2.4630  -18.1660  -17.3040 C   0  0  0  0  0  0  0  0  0  0  0  0
   -2.5610  -19.5570  -17.8770 C   0  0  0  0  0  0  0  0  0  0  0  0
   -3.5410  -20.4630  -17.4490 C   0  0  0  0  0  0  0  0  0  0  0  0
   -4.5140  -20.1220  -16.3530 C   0  0  0  0  0  0  0  0  0  0  0  0
   -1.6720  -19.9270  -18.8810 C   0  0  0  0  0  0  0  0  0  0  0  0
   -1.7460  -21.1710  -19.4770 C   0  0  0  0  0  0  0  0  0  0  0  0
   -2.7170  -22.0270  -19.0520 C   0  0  0  0  0  0  0  0  0  0  0  0
   -2.8200  -23.2430  -19.6490 F   0  0  0  0  0  0  0  0  0  0  0  0
   -3.6070  -21.7130  -18.0590 C   0  0  0  0  0  0  0  0  0  0  0  0
  8  7  1  0
  7 13  2  0
 13 11  1  0
 12 11  1  0
 11 10  2  0
 10  9  1  0
  9  6  2  0
  7  6  1  0
  6  5  1  0
  5  2  1  0
  3  2  2  0
  2  1  2  0
  4  2  1  0
M  END
$$$$

