Zika_NS5A-x0892_A_1201_1_Zika_NS5A-x0136+A+1016+1
     RDKit          3D

 15 16  0  0  0  0  0  0  0  0999 V2000
  -26.1990  -62.1730   -3.2400 C   0  0  0  0  0  0  0  0  0  0  0  0
  -27.0820  -61.0520   -2.8510 C   0  0  0  0  0  0  0  0  0  0  0  0
  -26.3400  -59.7710   -2.5430 C   0  0  0  0  0  0  0  0  0  0  0  0
  -25.5160  -59.6510   -1.4330 C   0  0  0  0  0  0  0  0  0  0  0  0
  -24.8310  -58.4800   -1.1760 C   0  0  0  0  0  0  0  0  0  0  0  0
  -24.9810  -57.3860   -2.0200 C   0  0  0  0  0  0  0  0  0  0  0  0
  -25.7960  -57.5010   -3.1310 C   0  0  0  0  0  0  0  0  0  0  0  0
  -26.4660  -58.6790   -3.3850 C   0  0  0  0  0  0  0  0  0  0  0  0
  -24.3690  -56.1670   -1.7280 N   0  0  0  0  0  0  0  0  0  0  0  0
  -24.5600  -54.9020   -1.4220 C   0  0  0  0  0  0  0  0  0  0  0  0
  -26.2870  -54.9080   -1.1040 S   0  0  0  0  0  0  0  0  0  0  0  0
  -26.5770  -53.2010   -0.6610 C   0  0  0  0  0  0  0  0  0  0  0  0
  -25.5120  -52.2440   -1.1560 C   0  0  0  0  0  0  0  0  0  0  0  0
  -24.0700  -52.6250   -0.9480 C   0  0  0  0  0  0  0  0  0  0  0  0
  -23.6960  -53.9840   -1.3440 N   0  0  0  0  0  0  0  0  0  0  0  0
  2  1  1  0
  3  2  1  0
  3  8  2  0
  8  7  1  0
  7  6  2  0
  9  6  1  0
 10  9  1  0
 10 15  2  0
 15 14  1  0
 14 13  1  0
 13 12  1  0
 12 11  1  0
 11 10  1  0
  6  5  1  0
  5  4  2  0
  4  3  1  0
M  END
$$$$

