DNV2_NS5A-x1192_A_1701_1_DNV2_NS5A-x0288+A+1701+1
     RDKit          3D

 13 14  0  0  0  0  0  0  0  0999 V2000
    0.2270  -26.5280  -48.3820 O   0  0  0  0  0  0  0  0  0  0  0  0
    0.9520  -26.1000  -47.5120 C   0  0  0  0  0  0  0  0  0  0  0  0
    1.2970  -24.6450  -47.4070 C   0  0  0  0  0  0  0  0  0  0  0  0
    2.7790  -24.4420  -47.1430 C   0  0  0  0  0  0  0  0  0  0  0  0
    3.1960  -25.2020  -45.9700 N   0  0  0  0  0  0  0  0  0  0  0  0
    3.0840  -26.6190  -46.3060 C   0  0  0  0  0  0  0  0  0  0  0  0
    1.6290  -27.0060  -46.5220 C   0  0  0  0  0  0  0  0  0  0  0  0
    4.2990  -24.7670  -45.2930 C   0  0  0  0  0  0  0  0  0  0  0  0
    5.0840  -25.7170  -44.7770 N   0  0  0  0  0  0  0  0  0  0  0  0
    6.1930  -25.3140  -44.1410 C   0  0  0  0  0  0  0  0  0  0  0  0
    6.5550  -23.9960  -43.9950 C   0  0  0  0  0  0  0  0  0  0  0  0
    5.7310  -23.0380  -44.5260 C   0  0  0  0  0  0  0  0  0  0  0  0
    4.5760  -23.4090  -45.1900 C   0  0  0  0  0  0  0  0  0  0  0  0
  2  1  2  0
  2  7  1  0
  7  6  1  0
  6  5  1  0
  5  4  1  0
  4  3  1  0
  3  2  1  0
  8  5  1  0
  8 13  2  0
 13 12  1  0
 12 11  2  0
 11 10  1  0
 10  9  2  0
  9  8  1  0
M  END
$$$$

