Zika_NS5A-x0364_A_1112_1_Zika_NS5A-x0041+A+1112+1
     RDKit          3D

 14 15  0  0  0  0  0  0  0  0999 V2000
  -34.9410  -18.9070  -28.6410 O   0  0  0  0  0  0  0  0  0  0  0  0
  -35.0730  -17.7440  -28.2740 C   0  0  0  0  0  0  0  0  0  0  0  0
  -35.3230  -16.6330  -29.2420 C   0  0  0  0  0  0  0  0  0  0  0  0
  -35.0090  -17.3980  -26.9880 N   0  0  0  0  0  0  0  0  0  0  0  0
  -35.3370  -16.0640  -26.4990 C   0  0  2  0  0  0  0  0  0  0  0  0
  -34.0660  -15.2430  -26.3300 C   0  0  0  0  0  0  0  0  0  0  0  0
  -34.3170  -13.9760  -25.5500 C   0  0  0  0  0  0  0  0  0  0  0  0
  -35.4110  -13.8770  -24.6830 C   0  0  0  0  0  0  0  0  0  0  0  0
  -36.2490  -14.9350  -24.5450 N   0  0  0  0  0  0  0  0  0  0  0  0
  -36.0290  -16.2110  -25.1590 C   0  0  0  0  0  0  0  0  0  0  0  0
  -33.4760  -12.8760  -25.6830 C   0  0  0  0  0  0  0  0  0  0  0  0
  -33.7150  -11.7100  -24.9790 C   0  0  0  0  0  0  0  0  0  0  0  0
  -34.7920  -11.6240  -24.1320 C   0  0  0  0  0  0  0  0  0  0  0  0
  -35.6450  -12.7010  -23.9760 C   0  0  0  0  0  0  0  0  0  0  0  0
  3  2  1  0
  2  1  2  0
  4  2  1  0
  5  4  1  1
  5 10  1  0
 10  9  1  0
  9  8  1  0
  8 14  2  0
 14 13  1  0
 13 12  2  0
 12 11  1  0
 11  7  2  0
  8  7  1  0
  7  6  1  0
  6  5  1  0
M  END
$$$$

