DNV2_NS5A-x0825_A_1901_1_DNV2_NS5A-x0825+A+1801+1
     RDKit          3D

 13 14  0  0  0  0  0  0  0  0999 V2000
   -3.0350  -14.9930  -13.0440 O   0  0  0  0  0  0  0  0  0  0  0  0
   -1.6220  -15.1650  -12.9320 S   0  0  0  0  0  0  0  0  0  0  0  0
   -0.9690  -16.2450  -13.5970 O   0  0  0  0  0  0  0  0  0  0  0  0
   -1.2510  -15.2350  -11.3940 N   0  0  0  0  0  0  0  0  0  0  0  0
   -0.8440  -13.7750  -13.4530 C   0  0  0  0  0  0  0  0  0  0  0  0
   -1.0400  -12.4800  -13.0660 N   0  0  0  0  0  0  0  0  0  0  0  0
   -0.1360  -11.6860  -13.7600 C   0  0  0  0  0  0  0  0  0  0  0  0
    0.6280  -12.4090  -14.5800 N   0  0  0  0  0  0  0  0  0  0  0  0
    0.2100  -13.7030  -14.4100 C   0  0  0  0  0  0  0  0  0  0  0  0
   -1.9680  -12.0490  -12.1520 N   0  0  0  0  0  0  0  0  0  0  0  0
   -1.9500  -10.7020  -11.9460 C   0  0  0  0  0  0  0  0  0  0  0  0
   -1.0760   -9.8100  -12.5910 C   0  0  0  0  0  0  0  0  0  0  0  0
   -0.1720  -10.2970  -13.4940 C   0  0  0  0  0  0  0  0  0  0  0  0
  4  2  1  0
  3  2  2  0
  2  1  2  0
  5  2  1  0
  5  9  2  0
  9  8  1  0
  8  7  2  0
  7 13  1  0
 13 12  2  0
 12 11  1  0
 11 10  2  0
 10  6  1  0
  6  5  1  0
  7  6  1  0
M  END
$$$$

