Zika_NS5A-x0900_A_1017_1_Zika_NS5A-x0900+A+1017+1
     RDKit          3D

 15 16  0  0  0  0  0  0  0  0999 V2000
  -34.1480  -29.2570  -10.0610 Cl  0  0  0  0  0  0  0  0  0  0  0  0
  -32.5050  -29.7870   -9.8360 C   0  0  0  0  0  0  0  0  0  0  0  0
  -32.1780  -31.0980  -10.0950 C   0  0  0  0  0  0  0  0  0  0  0  0
  -30.8790  -31.5280   -9.8830 C   0  0  0  0  0  0  0  0  0  0  0  0
  -31.5680  -28.8910   -9.3770 C   0  0  0  0  0  0  0  0  0  0  0  0
  -30.2680  -29.3170   -9.1710 C   0  0  0  0  0  0  0  0  0  0  0  0
  -29.9100  -30.6400   -9.4190 C   0  0  0  0  0  0  0  0  0  0  0  0
  -28.5600  -31.0880   -9.1810 N   0  0  0  0  0  0  0  0  0  0  0  0
  -27.8440  -31.9770   -9.9910 C   0  0  0  0  0  0  0  0  0  0  0  0
  -28.3180  -32.6940  -10.8630 O   0  0  0  0  0  0  0  0  0  0  0  0
  -26.5220  -31.9030   -9.6010 N   0  0  0  0  0  0  0  0  0  0  0  0
  -26.3220  -31.0190   -8.5710 C   0  0  0  0  0  0  0  0  0  0  0  0
  -25.2480  -30.8030   -8.0120 O   0  0  0  0  0  0  0  0  0  0  0  0
  -27.6660  -30.4010   -8.2380 C   0  0  2  0  0  0  0  0  0  0  0  0
  -28.0410  -30.6050   -6.7750 C   0  0  0  0  0  0  0  0  0  0  0  0
 14 15  1  1
 14  8  1  0
  9  8  1  0
 10  9  2  0
 11  9  1  0
 12 11  1  0
 14 12  1  0
 13 12  2  0
  8  7  1  0
  7  4  2  0
  4  3  1  0
  3  2  2  0
  2  1  1  0
  5  2  1  0
  6  5  2  0
  7  6  1  0
M  END
$$$$

