Zika_NS5A-x0480_A_1112_1_Zika_NS5A-x0351+A+1112+1
     RDKit          3D

 15 15  0  0  0  0  0  0  0  0999 V2000
  -29.2960  -29.2050  -15.4910 Br  0  0  0  0  0  0  0  0  0  0  0  0
  -28.5930  -29.5770  -17.2060 C   0  0  0  0  0  0  0  0  0  0  0  0
  -27.2350  -29.5700  -17.3800 C   0  0  0  0  0  0  0  0  0  0  0  0
  -26.7250  -29.7590  -18.6460 C   0  0  0  0  0  0  0  0  0  0  0  0
  -29.4620  -29.7960  -18.2520 C   0  0  0  0  0  0  0  0  0  0  0  0
  -28.9690  -29.9790  -19.5390 C   0  0  0  0  0  0  0  0  0  0  0  0
  -29.9480  -30.1330  -20.6740 C   0  0  0  0  0  0  0  0  0  0  0  0
  -27.5790  -29.9540  -19.7280 C   0  0  0  0  0  0  0  0  0  0  0  0
  -26.9900  -30.0420  -21.0960 C   0  0  0  0  0  0  0  0  0  0  0  0
  -27.5280  -29.4830  -22.0450 O   0  0  0  0  0  0  0  0  0  0  0  0
  -25.8530  -30.7220  -21.2250 N   0  0  0  0  0  0  0  0  0  0  0  0
  -25.3570  -31.1420  -22.5220 C   0  0  0  0  0  0  0  0  0  0  0  0
  -25.1470  -32.6360  -22.4430 C   0  0  1  0  0  0  0  0  0  0  0  0
  -25.2810  -33.1310  -23.7820 O   0  0  0  0  0  0  0  0  0  0  0  0
  -23.7830  -32.9380  -21.8590 C   0  0  0  0  0  0  0  0  0  0  0  0
 13 15  1  6
 14 13  1  0
 13 12  1  0
 12 11  1  0
 11  9  1  0
 10  9  2  0
  9  8  1  0
  8  4  2  0
  4  3  1  0
  3  2  2  0
  2  1  1  0
  5  2  1  0
  6  5  2  0
  8  6  1  0
  7  6  1  0
M  END
$$$$

