DNV2_NS5A-x0153_A_1801_1_DNV2_NS5A-x0249+A+1707+1
     RDKit          3D

 12 12  0  0  0  0  0  0  0  0999 V2000
   -9.1920  -70.5000  -21.8910 Cl  0  0  0  0  0  0  0  0  0  0  0  0
   -9.1180  -70.8190  -20.1900 C   0  0  0  0  0  0  0  0  0  0  0  0
   -7.8770  -70.8370  -19.5760 C   0  0  0  0  0  0  0  0  0  0  0  0
   -7.7900  -71.0830  -18.2170 C   0  0  0  0  0  0  0  0  0  0  0  0
   -8.9260  -71.3070  -17.4750 C   0  0  0  0  0  0  0  0  0  0  0  0
  -10.1710  -71.2930  -18.0800 C   0  0  0  0  0  0  0  0  0  0  0  0
  -10.2780  -71.0490  -19.4430 C   0  0  0  0  0  0  0  0  0  0  0  0
  -11.9010  -71.0330  -20.1510 S   0  0  0  0  0  0  0  0  0  0  0  0
  -11.7860  -71.5210  -21.4910 O   0  0  0  0  0  0  0  0  0  0  0  0
  -12.4480  -69.7340  -19.9180 O   0  0  0  0  0  0  0  0  0  0  0  0
  -12.8260  -72.0810  -19.3500 N   0  0  0  0  0  0  0  0  0  0  0  0
  -13.9210  -72.7370  -20.0580 C   0  0  0  0  0  0  0  0  0  0  0  0
 12 11  1  0
 11  8  1  0
  9  8  2  0
 10  8  2  0
  8  7  1  0
  7  6  2  0
  6  5  1  0
  5  4  2  0
  4  3  1  0
  3  2  2  0
  7  2  1  0
  2  1  1  0
M  END
>  <id>  (1) 
9

>  <inchikey>  (1) 
OSFAUZAAZLLTSW-UHFFFAOYSA-N

>  <alias>  (1) 
d0153b

>  <name>  (1) 
d0153b

>  <smiles>  (1) 
CNS(=O)(=O)c1ccccc1Cl

>  <path>  (1) 
/opt/xchem-fragalysis-2/maxwin/BulkDock/TARGETS/Flavi_NS5_RdRp/aligned_files/d0153b/d0153b_hippo.pdb

>  <distance_score>  (1) 
None

>  <energy_score>  (1) 
None

>  <compound>  (1) 
OSFAUZAAZLLTSW-UHFFFAOYSA-N

>  <compound_id>  (1) 
9

>  <target>  (1) 
Flavi_NS5_RdRp

$$$$
DNV2_NS5A-x0153_A_1707_1_DNV2_NS5A-x0249+A+1707+1
     RDKit          3D

 12 12  0  0  0  0  0  0  0  0999 V2000
   -0.9910  -72.0570  -20.8560 Cl  0  0  0  0  0  0  0  0  0  0  0  0
   -0.9540  -70.3260  -20.9360 C   0  0  0  0  0  0  0  0  0  0  0  0
    0.2640  -69.7060  -21.1620 C   0  0  0  0  0  0  0  0  0  0  0  0
    0.3280  -68.3240  -21.2180 C   0  0  0  0  0  0  0  0  0  0  0  0
   -0.8060  -67.5670  -21.0520 C   0  0  0  0  0  0  0  0  0  0  0  0
   -2.0270  -68.1770  -20.8290 C   0  0  0  0  0  0  0  0  0  0  0  0
   -2.1130  -69.5610  -20.7690 C   0  0  0  0  0  0  0  0  0  0  0  0
   -3.7080  -70.2680  -20.4640 S   0  0  0  0  0  0  0  0  0  0  0  0
   -4.0260  -71.1680  -21.5280 O   0  0  0  0  0  0  0  0  0  0  0  0
   -4.5820  -69.1760  -20.1770 O   0  0  0  0  0  0  0  0  0  0  0  0
   -3.6250  -71.1490  -19.1200 N   0  0  0  0  0  0  0  0  0  0  0  0
   -4.1400  -70.5770  -17.8830 C   0  0  0  0  0  0  0  0  0  0  0  0
 12 11  1  0
 11  8  1  0
  9  8  2  0
 10  8  2  0
  8  7  1  0
  7  6  2  0
  6  5  1  0
  5  4  2  0
  4  3  1  0
  3  2  2  0
  7  2  1  0
  2  1  1  0
M  END
>  <id>  (2) 
10

>  <inchikey>  (2) 
OSFAUZAAZLLTSW-UHFFFAOYSA-N

>  <alias>  (2) 
d0153a

>  <name>  (2) 
d0153a

>  <smiles>  (2) 
CNS(=O)(=O)c1ccccc1Cl

>  <path>  (2) 
/opt/xchem-fragalysis-2/maxwin/BulkDock/TARGETS/Flavi_NS5_RdRp/aligned_files/d0153a/d0153a.pdb

>  <distance_score>  (2) 
None

>  <energy_score>  (2) 
None

>  <compound>  (2) 
OSFAUZAAZLLTSW-UHFFFAOYSA-N

>  <compound_id>  (2) 
9

>  <target>  (2) 
Flavi_NS5_RdRp

$$$$
DNV2_NS5A-x0162_A_1707_1_DNV2_NS5A-x0249+A+1707+1
     RDKit          3D

 16 17  0  0  0  0  0  0  0  0999 V2000
   -8.6690  -71.5540  -20.9660 O   0  0  0  0  0  0  0  0  0  0  0  0
   -8.7100  -71.6110  -19.7430 C   0  0  0  0  0  0  0  0  0  0  0  0
   -9.9510  -71.2810  -18.9720 C   0  0  0  0  0  0  0  0  0  0  0  0
   -7.6500  -71.9740  -18.9890 N   0  0  0  0  0  0  0  0  0  0  0  0
   -6.2970  -71.6140  -19.1690 C   0  0  0  0  0  0  0  0  0  0  0  0
   -5.9630  -70.4710  -19.8830 C   0  0  0  0  0  0  0  0  0  0  0  0
   -4.6370  -70.1450  -20.0980 C   0  0  0  0  0  0  0  0  0  0  0  0
   -3.6180  -70.9510  -19.6040 C   0  0  0  0  0  0  0  0  0  0  0  0
   -3.9600  -72.0870  -18.8780 C   0  0  0  0  0  0  0  0  0  0  0  0
   -5.2850  -72.4160  -18.6610 C   0  0  0  0  0  0  0  0  0  0  0  0
   -2.2070  -70.6210  -19.8600 C   0  0  0  0  0  0  0  0  0  0  0  0
   -1.8620  -69.3230  -20.2220 N   0  0  0  0  0  0  0  0  0  0  0  0
   -0.5650  -69.2210  -20.4000 C   0  0  0  0  0  0  0  0  0  0  0  0
    0.0610  -68.0930  -20.7410 N   0  0  0  0  0  0  0  0  0  0  0  0
    0.3220  -70.7010  -20.1440 S   0  0  0  0  0  0  0  0  0  0  0  0
   -1.1590  -71.4820  -19.7750 C   0  0  0  0  0  0  0  0  0  0  0  0
  3  2  1  0
  2  1  2  0
  4  2  1  0
  5  4  1  0
  5 10  2  0
 10  9  1  0
  9  8  2  0
  8  7  1  0
  7  6  2  0
  6  5  1  0
 11  8  1  0
 11 16  2  0
 16 15  1  0
 15 13  1  0
 14 13  1  0
 13 12  2  0
 12 11  1  0
M  END
>  <id>  (3) 
15

>  <inchikey>  (3) 
VBBNSESFUHRMJU-UHFFFAOYSA-N

>  <alias>  (3) 
d0162a

>  <name>  (3) 
d0162a

>  <smiles>  (3) 
CC(=O)Nc1ccc(-c2csc(N)n2)cc1

>  <path>  (3) 
/opt/xchem-fragalysis-2/maxwin/BulkDock/TARGETS/Flavi_NS5_RdRp/aligned_files/d0162a/d0162a.pdb

>  <distance_score>  (3) 
None

>  <energy_score>  (3) 
None

>  <compound>  (3) 
VBBNSESFUHRMJU-UHFFFAOYSA-N

>  <compound_id>  (3) 
12

>  <target>  (3) 
Flavi_NS5_RdRp

$$$$
DNV2_NS5A-x0174_A_1608_1_DNV2_NS5A-x0249+A+1707+1
     RDKit          3D

 16 17  0  0  0  0  0  0  0  0999 V2000
  -14.5260  -69.9790  -19.0550 O   0  0  0  0  0  0  0  0  0  0  0  0
  -13.8380  -69.6370  -20.2620 S   0  0  0  0  0  0  0  0  0  0  0  0
  -13.0170  -68.4660  -20.2910 O   0  0  0  0  0  0  0  0  0  0  0  0
  -15.0450  -69.4890  -21.5600 C   0  0  0  0  0  0  0  0  0  0  0  0
  -14.4150  -69.4670  -22.9280 C   0  0  0  0  0  0  0  0  0  0  0  0
  -12.8600  -70.9160  -20.6410 N   0  0  0  0  0  0  0  0  0  0  0  0
  -11.5650  -70.7230  -21.3130 C   0  0  0  0  0  0  0  0  0  0  0  0
  -10.3650  -70.9940  -20.4370 C   0  0  0  0  0  0  0  0  0  0  0  0
   -9.0840  -70.7120  -20.9060 C   0  0  0  0  0  0  0  0  0  0  0  0
   -8.0010  -70.9900  -20.0990 C   0  0  0  0  0  0  0  0  0  0  0  0
   -6.6650  -70.7580  -20.3430 O   0  0  0  0  0  0  0  0  0  0  0  0
   -6.0100  -71.0190  -19.0990 C   0  0  0  0  0  0  0  0  0  0  0  0
   -6.9370  -71.6950  -18.2470 O   0  0  0  0  0  0  0  0  0  0  0  0
   -8.1640  -71.5420  -18.8550 C   0  0  0  0  0  0  0  0  0  0  0  0
   -9.4190  -71.8390  -18.3620 C   0  0  0  0  0  0  0  0  0  0  0  0
  -10.5140  -71.5510  -19.1640 C   0  0  0  0  0  0  0  0  0  0  0  0
  5  4  1  0
  4  2  1  0
  3  2  2  0
  2  1  2  0
  6  2  1  0
  7  6  1  0
  8  7  1  0
  8 16  2  0
 16 15  1  0
 15 14  2  0
 14 13  1  0
 13 12  1  0
 12 11  1  0
 11 10  1  0
 14 10  1  0
 10  9  2  0
  9  8  1  0
M  END
>  <id>  (4) 
17

>  <inchikey>  (4) 
UKPLBUIFSDRLEZ-UHFFFAOYSA-N

>  <alias>  (4) 
d0174a

>  <name>  (4) 
d0174a

>  <smiles>  (4) 
CCS(=O)(=O)NCc1ccc2c(c1)OCO2

>  <path>  (4) 
/opt/xchem-fragalysis-2/maxwin/BulkDock/TARGETS/Flavi_NS5_RdRp/aligned_files/d0174a/d0174a.pdb

>  <distance_score>  (4) 
None

>  <energy_score>  (4) 
None

>  <compound>  (4) 
UKPLBUIFSDRLEZ-UHFFFAOYSA-N

>  <compound_id>  (4) 
14

>  <target>  (4) 
Flavi_NS5_RdRp

$$$$
DNV2_NS5A-x0176_A_1701_1_DNV2_NS5A-x0249+A+1707+1
     RDKit          3D

 17 18  0  0  0  0  0  0  0  0999 V2000
   -5.8770  -72.4050  -17.4710 O   0  0  0  0  0  0  0  0  0  0  0  0
   -6.1460  -71.8840  -18.5340 C   0  0  0  0  0  0  0  0  0  0  0  0
   -5.0430  -71.4420  -19.4580 C   0  0  0  0  0  0  0  0  0  0  0  0
   -4.7340  -70.0950  -19.5860 C   0  0  0  0  0  0  0  0  0  0  0  0
   -5.4310  -69.2150  -18.8350 F   0  0  0  0  0  0  0  0  0  0  0  0
   -3.7650  -69.6130  -20.4320 C   0  0  0  0  0  0  0  0  0  0  0  0
   -3.0530  -70.5160  -21.2020 C   0  0  0  0  0  0  0  0  0  0  0  0
   -3.3110  -71.8740  -21.1130 C   0  0  0  0  0  0  0  0  0  0  0  0
   -4.2890  -72.3000  -20.2470 C   0  0  0  0  0  0  0  0  0  0  0  0
   -4.5290  -73.6250  -20.1480 F   0  0  0  0  0  0  0  0  0  0  0  0
   -7.4130  -71.6930  -18.9420 N   0  0  0  0  0  0  0  0  0  0  0  0
   -8.5400  -72.0800  -18.0870 C   0  0  0  0  0  0  0  0  0  0  0  0
   -9.4020  -70.9100  -17.6510 C   0  0  0  0  0  0  0  0  0  0  0  0
  -10.5400  -70.5730  -18.5950 C   0  0  0  0  0  0  0  0  0  0  0  0
  -10.1320  -70.2730  -20.0220 C   0  0  0  0  0  0  0  0  0  0  0  0
   -8.6660  -69.9530  -20.2300 C   0  0  0  0  0  0  0  0  0  0  0  0
   -7.7460  -71.1570  -20.2650 C   0  0  0  0  0  0  0  0  0  0  0  0
 10  9  1  0
  9  8  1  0
  8  7  2  0
  7  6  1  0
  6  4  2  0
  5  4  1  0
  4  3  1  0
  9  3  2  0
  3  2  1  0
  2  1  2  0
 11  2  1  0
 11 17  1  0
 17 16  1  0
 16 15  1  0
 15 14  1  0
 14 13  1  0
 13 12  1  0
 12 11  1  0
M  END
>  <id>  (5) 
18

>  <inchikey>  (5) 
RRINWFXOXXUQGK-UHFFFAOYSA-N

>  <alias>  (5) 
d0176a

>  <name>  (5) 
d0176a

>  <smiles>  (5) 
O=C(c1c(F)cccc1F)N1CCCCCC1

>  <path>  (5) 
/opt/xchem-fragalysis-2/maxwin/BulkDock/TARGETS/Flavi_NS5_RdRp/aligned_files/d0176a/d0176a.pdb

>  <distance_score>  (5) 
None

>  <energy_score>  (5) 
None

>  <compound>  (5) 
RRINWFXOXXUQGK-UHFFFAOYSA-N

>  <compound_id>  (5) 
15

>  <target>  (5) 
Flavi_NS5_RdRp

$$$$
DNV2_NS5A-x0210_A_1701_1_DNV2_NS5A-x0249+A+1707+1
     RDKit          3D

 16 17  0  0  0  0  0  0  0  0999 V2000
    0.0890  -67.3610  -21.0900 O   0  0  0  0  0  0  0  0  0  0  0  0
   -0.0930  -68.7760  -21.0120 S   0  0  0  0  0  0  0  0  0  0  0  0
    0.1950  -69.5910  -22.1500 O   0  0  0  0  0  0  0  0  0  0  0  0
   -1.7560  -69.0840  -20.5300 C   0  0  0  0  0  0  0  0  0  0  0  0
   -2.3000  -70.3440  -20.7160 C   0  0  0  0  0  0  0  0  0  0  0  0
   -3.5950  -70.5980  -20.3030 C   0  0  0  0  0  0  0  0  0  0  0  0
   -2.5010  -68.0690  -19.9510 C   0  0  0  0  0  0  0  0  0  0  0  0
   -3.7960  -68.3240  -19.5350 C   0  0  0  0  0  0  0  0  0  0  0  0
   -4.3040  -69.5830  -19.7150 C   0  0  0  0  0  0  0  0  0  0  0  0
   -5.5590  -69.8480  -19.2590 F   0  0  0  0  0  0  0  0  0  0  0  0
    0.8700  -69.3080  -19.8010 N   0  0  0  0  0  0  0  0  0  0  0  0
    1.5130  -68.2860  -18.9520 C   0  0  0  0  0  0  0  0  0  0  0  0
    2.0570  -68.9380  -17.7000 C   0  0  0  0  0  0  0  0  0  0  0  0
    2.9890  -70.0010  -18.0440 N   0  0  0  0  0  0  0  0  0  0  0  0
    2.3120  -71.0220  -18.8400 C   0  0  0  0  0  0  0  0  0  0  0  0
    1.7780  -70.4260  -20.1220 C   0  0  0  0  0  0  0  0  0  0  0  0
 10  9  1  0
  9  6  1  0
  6  5  2  0
  5  4  1  0
  7  4  2  0
  8  7  1  0
  9  8  2  0
  4  2  1  0
  3  2  2  0
  2  1  2  0
 11  2  1  0
 11 16  1  0
 16 15  1  0
 15 14  1  0
 14 13  1  0
 13 12  1  0
 12 11  1  0
M  END
>  <id>  (6) 
21

>  <inchikey>  (6) 
KKDHOKJGLSITHN-UHFFFAOYSA-N

>  <alias>  (6) 
d0210a

>  <name>  (6) 
d0210a

>  <smiles>  (6) 
O=S(=O)(c1ccc(F)cc1)N1CCNCC1

>  <path>  (6) 
/opt/xchem-fragalysis-2/maxwin/BulkDock/TARGETS/Flavi_NS5_RdRp/aligned_files/d0210a/d0210a.pdb

>  <distance_score>  (6) 
None

>  <energy_score>  (6) 
None

>  <compound>  (6) 
KKDHOKJGLSITHN-UHFFFAOYSA-N

>  <compound_id>  (6) 
17

>  <target>  (6) 
Flavi_NS5_RdRp

$$$$
DNV2_NS5A-x0248_A_1608_1_DNV2_NS5A-x0249+A+1707+1
     RDKit          3D

 15 15  0  0  0  0  0  0  0  0999 V2000
   -7.0320  -71.1660  -20.4820 Cl  0  0  0  0  0  0  0  0  0  0  0  0
   -8.7430  -71.0200  -20.1870 C   0  0  0  0  0  0  0  0  0  0  0  0
   -9.2120  -71.1280  -18.8950 C   0  0  0  0  0  0  0  0  0  0  0  0
  -10.5600  -70.9230  -18.6570 C   0  0  0  0  0  0  0  0  0  0  0  0
  -11.4220  -70.6340  -19.6990 C   0  0  0  0  0  0  0  0  0  0  0  0
   -9.5880  -70.7500  -21.2480 C   0  0  0  0  0  0  0  0  0  0  0  0
  -10.9480  -70.5620  -21.0070 C   0  0  0  0  0  0  0  0  0  0  0  0
  -11.8990  -70.3120  -22.1350 C   0  0  0  0  0  0  0  0  0  0  0  0
  -11.5080  -69.8210  -23.1900 O   0  0  0  0  0  0  0  0  0  0  0  0
  -13.1850  -70.6790  -21.9440 N   0  0  0  0  0  0  0  0  0  0  0  0
  -14.3290  -70.5310  -22.8740 C   0  0  0  0  0  0  0  0  0  0  0  0
  -14.3380  -69.1100  -23.4320 C   0  0  0  0  0  0  0  0  0  0  0  0
  -15.6200  -70.7710  -22.0890 C   0  0  0  0  0  0  0  0  0  0  0  0
  -14.2780  -71.5420  -24.0360 C   0  0  0  0  0  0  0  0  0  0  0  0
  -13.0170  -71.6100  -24.6870 O   0  0  0  0  0  0  0  0  0  0  0  0
 12 11  1  0
 13 11  1  0
 14 11  1  0
 15 14  1  0
 11 10  1  0
 10  8  1  0
  9  8  2  0
  8  7  1  0
  7  5  1  0
  5  4  2  0
  4  3  1  0
  3  2  2  0
  2  1  1  0
  6  2  1  0
  7  6  2  0
M  END
>  <id>  (7) 
22

>  <inchikey>  (7) 
XZDXDRPMHCVWBK-UHFFFAOYSA-N

>  <alias>  (7) 
d0248a

>  <name>  (7) 
d0248a

>  <smiles>  (7) 
CC(C)(CO)NC(=O)c1cccc(Cl)c1

>  <path>  (7) 
/opt/xchem-fragalysis-2/maxwin/BulkDock/TARGETS/Flavi_NS5_RdRp/aligned_files/d0248a/d0248a.pdb

>  <distance_score>  (7) 
None

>  <energy_score>  (7) 
None

>  <compound>  (7) 
XZDXDRPMHCVWBK-UHFFFAOYSA-N

>  <compound_id>  (7) 
18

>  <target>  (7) 
Flavi_NS5_RdRp

$$$$
DNV2_NS5A-x0249_A_1707_1_DNV2_NS5A-x0249+A+1707+1
     RDKit          3D

 17 18  0  0  0  0  0  0  0  0999 V2000
   -0.6750  -70.9390  -20.4750 O   0  0  0  0  0  0  0  0  0  0  0  0
   -0.8330  -69.7230  -20.4510 C   0  0  0  0  0  0  0  0  0  0  0  0
    0.3170  -68.7730  -20.5950 C   0  0  0  0  0  0  0  0  0  0  0  0
   -2.0440  -69.1340  -20.3010 N   0  0  0  0  0  0  0  0  0  0  0  0
   -3.2830  -69.7220  -19.9540 C   0  0  0  0  0  0  0  0  0  0  0  0
   -3.3610  -70.9530  -19.3150 C   0  0  0  0  0  0  0  0  0  0  0  0
   -4.5900  -71.4830  -18.9660 C   0  0  0  0  0  0  0  0  0  0  0  0
   -5.7590  -70.7900  -19.2530 C   0  0  0  0  0  0  0  0  0  0  0  0
   -5.6800  -69.5600  -19.8920 C   0  0  0  0  0  0  0  0  0  0  0  0
   -4.4510  -69.0320  -20.2420 C   0  0  0  0  0  0  0  0  0  0  0  0
   -7.0120  -71.3340  -18.9090 N   0  0  0  0  0  0  0  0  0  0  0  0
   -8.2770  -70.9640  -19.4030 C   0  0  0  0  0  0  0  0  0  0  0  0
   -8.4540  -70.6550  -20.7460 C   0  0  0  0  0  0  0  0  0  0  0  0
   -9.7020  -70.2790  -21.2120 C   0  0  0  0  0  0  0  0  0  0  0  0
  -10.7740  -70.2100  -20.3510 C   0  0  0  0  0  0  0  0  0  0  0  0
  -10.6050  -70.5170  -19.0210 C   0  0  0  0  0  0  0  0  0  0  0  0
   -9.3640  -70.8940  -18.5400 C   0  0  0  0  0  0  0  0  0  0  0  0
  3  2  1  0
  2  1  2  0
  4  2  1  0
  5  4  1  0
  5 10  2  0
 10  9  1  0
  9  8  2  0
 11  8  1  0
 12 11  1  0
 12 17  2  0
 17 16  1  0
 16 15  2  0
 15 14  1  0
 14 13  2  0
 13 12  1  0
  8  7  1  0
  7  6  2  0
  6  5  1  0
M  END
>  <id>  (8) 
23

>  <inchikey>  (8) 
QAIADKFUCPEVKW-UHFFFAOYSA-N

>  <alias>  (8) 
d0249a

>  <name>  (8) 
d0249a

>  <smiles>  (8) 
CC(=O)Nc1ccc(Nc2ccccc2)cc1

>  <path>  (8) 
/opt/xchem-fragalysis-2/maxwin/BulkDock/TARGETS/Flavi_NS5_RdRp/aligned_files/d0249a/d0249a_hippo.pdb

>  <distance_score>  (8) 
None

>  <energy_score>  (8) 
None

>  <compound>  (8) 
QAIADKFUCPEVKW-UHFFFAOYSA-N

>  <compound_id>  (8) 
19

>  <target>  (8) 
Flavi_NS5_RdRp

$$$$
DNV2_NS5A-x0253_A_1707_1_DNV2_NS5A-x0249+A+1707+1
     RDKit          3D

 19 20  0  0  0  0  0  0  0  0999 V2000
   -1.9750  -68.4890  -21.6300 F   0  0  0  0  0  0  0  0  0  0  0  0
   -2.8490  -68.7650  -20.6270 C   0  0  0  0  0  0  0  0  0  0  0  0
   -2.8290  -67.9700  -19.5150 C   0  0  0  0  0  0  0  0  0  0  0  0
   -3.6920  -68.2780  -18.4780 C   0  0  0  0  0  0  0  0  0  0  0  0
   -4.5510  -69.3580  -18.5740 C   0  0  0  0  0  0  0  0  0  0  0  0
   -3.6860  -69.8440  -20.7780 C   0  0  0  0  0  0  0  0  0  0  0  0
   -4.5400  -70.1280  -19.7240 C   0  0  0  0  0  0  0  0  0  0  0  0
   -5.6300  -71.5030  -19.8590 S   0  0  0  0  0  0  0  0  0  0  0  0
   -6.6730  -71.3330  -18.8970 O   0  0  0  0  0  0  0  0  0  0  0  0
   -5.9560  -71.6910  -21.2380 O   0  0  0  0  0  0  0  0  0  0  0  0
   -4.7780  -72.8160  -19.3780 N   0  0  0  0  0  0  0  0  0  0  0  0
   -4.7060  -73.1580  -18.0090 C   0  0  0  0  0  0  0  0  0  0  0  0
   -5.7050  -73.8170  -17.2300 C   0  0  0  0  0  0  0  0  0  0  0  0
   -7.0600  -74.3180  -17.6160 C   0  0  0  0  0  0  0  0  0  0  0  0
   -3.6700  -72.9000  -17.1740 C   0  0  0  0  0  0  0  0  0  0  0  0
   -2.3720  -72.2220  -17.4480 C   0  0  0  0  0  0  0  0  0  0  0  0
   -4.0270  -73.3760  -15.9790 N   0  0  0  0  0  0  0  0  0  0  0  0
   -5.2650  -73.9400  -15.9870 N   0  0  0  0  0  0  0  0  0  0  0  0
   -3.2600  -73.3590  -14.7400 C   0  0  0  0  0  0  0  0  0  0  0  0
 14 13  1  0
 13 18  2  0
 18 17  1  0
 19 17  1  0
 17 15  1  0
 16 15  1  0
 15 12  2  0
 13 12  1  0
 12 11  1  0
 11  8  1  0
  9  8  2  0
 10  8  2  0
  8  7  1  0
  7  5  1  0
  5  4  2  0
  4  3  1  0
  3  2  2  0
  2  1  1  0
  6  2  1  0
  7  6  2  0
M  END
>  <id>  (9) 
25

>  <inchikey>  (9) 
BHTDVQOGSRZECO-UHFFFAOYSA-N

>  <alias>  (9) 
d0253a

>  <name>  (9) 
d0253a

>  <smiles>  (9) 
Cc1nn(C)c(C)c1NS(=O)(=O)c1cccc(F)c1

>  <path>  (9) 
/opt/xchem-fragalysis-2/maxwin/BulkDock/TARGETS/Flavi_NS5_RdRp/aligned_files/d0253a/d0253a.pdb

>  <distance_score>  (9) 
None

>  <energy_score>  (9) 
None

>  <compound>  (9) 
BHTDVQOGSRZECO-UHFFFAOYSA-N

>  <compound_id>  (9) 
21

>  <target>  (9) 
Flavi_NS5_RdRp

$$$$
DNV2_NS5A-x0258_A_1707_1_DNV2_NS5A-x0249+A+1707+1
     RDKit          3D

 15 16  0  0  0  0  0  0  0  0999 V2000
   -3.9170  -69.6220  -20.6960 O   0  0  0  0  0  0  0  0  0  0  0  0
   -3.8620  -70.8180  -19.9190 S   0  0  0  0  0  0  0  0  0  0  0  0
   -3.6620  -70.6730  -18.5120 O   0  0  0  0  0  0  0  0  0  0  0  0
   -2.6920  -71.9720  -20.6110 C   0  0  0  0  0  0  0  0  0  0  0  0
   -3.5490  -73.1520  -21.0280 C   0  0  0  0  0  0  0  0  0  0  0  0
   -4.9060  -72.5660  -21.3710 C   0  0  0  0  0  0  0  0  0  0  0  0
   -5.2320  -71.7280  -20.1940 N   0  0  0  0  0  0  0  0  0  0  0  0
   -6.2710  -72.1690  -19.2280 C   0  0  0  0  0  0  0  0  0  0  0  0
   -7.7020  -71.8290  -19.5960 C   0  0  0  0  0  0  0  0  0  0  0  0
   -8.0040  -71.1350  -20.7650 C   0  0  0  0  0  0  0  0  0  0  0  0
   -9.3180  -70.8280  -21.0370 C   0  0  0  0  0  0  0  0  0  0  0  0
   -9.5990  -70.1630  -22.1910 F   0  0  0  0  0  0  0  0  0  0  0  0
   -8.7440  -72.1950  -18.7520 C   0  0  0  0  0  0  0  0  0  0  0  0
  -10.0580  -71.8680  -19.0580 C   0  0  0  0  0  0  0  0  0  0  0  0
  -10.3570  -71.1680  -20.2150 C   0  0  0  0  0  0  0  0  0  0  0  0
 12 11  1  0
 11 15  2  0
 15 14  1  0
 14 13  2  0
 13  9  1  0
  9  8  1  0
  8  7  1  0
  7  6  1  0
  6  5  1  0
  5  4  1  0
  4  2  1  0
  7  2  1  0
  3  2  2  0
  2  1  2  0
 10  9  2  0
 11 10  1  0
M  END
>  <id>  (10) 
27

>  <inchikey>  (10) 
RVDJKNWVTKGWCE-UHFFFAOYSA-N

>  <alias>  (10) 
d0258a

>  <name>  (10) 
d0258a

>  <smiles>  (10) 
O=S1(=O)CCCN1Cc1cccc(F)c1

>  <path>  (10) 
/opt/xchem-fragalysis-2/maxwin/BulkDock/TARGETS/Flavi_NS5_RdRp/aligned_files/d0258a/d0258a.pdb

>  <distance_score>  (10) 
None

>  <energy_score>  (10) 
None

>  <compound>  (10) 
RVDJKNWVTKGWCE-UHFFFAOYSA-N

>  <compound_id>  (10) 
23

>  <target>  (10) 
Flavi_NS5_RdRp

$$$$
DNV2_NS5A-x0279_A_1608_1_DNV2_NS5A-x0249+A+1707+1
     RDKit          3D

 14 15  0  0  0  0  0  0  0  0999 V2000
  -11.4380  -70.0300  -20.7050 F   0  0  0  0  0  0  0  0  0  0  0  0
  -10.1750  -70.4220  -20.3810 C   0  0  0  0  0  0  0  0  0  0  0  0
   -9.9850  -71.3320  -19.3710 C   0  0  0  0  0  0  0  0  0  0  0  0
   -8.7520  -71.7210  -19.0030 N   0  0  0  0  0  0  0  0  0  0  0  0
   -7.6990  -71.1840  -19.6470 C   0  0  0  0  0  0  0  0  0  0  0  0
   -7.8490  -70.2460  -20.6770 C   0  0  0  0  0  0  0  0  0  0  0  0
   -9.1260  -69.8760  -21.0540 C   0  0  0  0  0  0  0  0  0  0  0  0
   -6.4400  -71.5750  -19.2490 N   0  0  0  0  0  0  0  0  0  0  0  0
   -5.2400  -71.5040  -20.0880 C   0  0  0  0  0  0  0  0  0  0  0  0
   -4.2680  -72.6290  -19.7650 C   0  0  0  0  0  0  0  0  0  0  0  0
   -3.0110  -72.4640  -20.5840 C   0  0  0  0  0  0  0  0  0  0  0  0
   -2.3920  -71.1940  -20.3430 O   0  0  0  0  0  0  0  0  0  0  0  0
   -3.2630  -70.1340  -20.7410 C   0  0  0  0  0  0  0  0  0  0  0  0
   -4.5500  -70.1520  -19.9520 C   0  0  0  0  0  0  0  0  0  0  0  0
  2  1  1  0
  2  7  2  0
  7  6  1  0
  6  5  2  0
  8  5  1  0
  9  8  1  0
  9 14  1  0
 14 13  1  0
 13 12  1  0
 12 11  1  0
 11 10  1  0
 10  9  1  0
  5  4  1  0
  4  3  2  0
  3  2  1  0
M  END
>  <id>  (11) 
29

>  <inchikey>  (11) 
DGYWCGILBGNERL-UHFFFAOYSA-N

>  <alias>  (11) 
d0279a

>  <name>  (11) 
d0279a

>  <smiles>  (11) 
Fc1ccc(NC2CCOCC2)nc1

>  <path>  (11) 
/opt/xchem-fragalysis-2/maxwin/BulkDock/TARGETS/Flavi_NS5_RdRp/aligned_files/d0279a/d0279a.pdb

>  <distance_score>  (11) 
None

>  <energy_score>  (11) 
None

>  <compound>  (11) 
DGYWCGILBGNERL-UHFFFAOYSA-N

>  <compound_id>  (11) 
25

>  <target>  (11) 
Flavi_NS5_RdRp

$$$$
DNV2_NS5A-x0283_A_1608_1_DNV2_NS5A-x0249+A+1707+1
     RDKit          3D

 12 12  0  0  0  0  0  0  0  0999 V2000
  -13.2080  -68.3640  -20.0420 O   0  0  0  0  0  0  0  0  0  0  0  0
  -13.6940  -69.7030  -20.1560 S   0  0  0  0  0  0  0  0  0  0  0  0
  -14.0570  -70.4140  -18.9670 O   0  0  0  0  0  0  0  0  0  0  0  0
  -14.9850  -69.6520  -21.1110 N   0  0  0  0  0  0  0  0  0  0  0  0
  -14.8170  -69.1760  -22.4830 C   0  0  0  0  0  0  0  0  0  0  0  0
  -12.5030  -70.6670  -21.0630 C   0  0  0  0  0  0  0  0  0  0  0  0
  -11.1890  -71.1850  -20.4640 C   0  0  0  0  0  0  0  0  0  0  0  0
  -11.0950  -71.1650  -18.9500 C   0  0  0  0  0  0  0  0  0  0  0  0
   -9.8520  -71.9160  -18.4740 C   0  0  0  0  0  0  0  0  0  0  0  0
   -8.5690  -71.3610  -19.1100 C   0  0  0  0  0  0  0  0  0  0  0  0
   -8.6910  -71.2430  -20.6230 C   0  0  0  0  0  0  0  0  0  0  0  0
   -9.9560  -70.4990  -21.0270 C   0  0  0  0  0  0  0  0  0  0  0  0
  5  4  1  0
  4  2  1  0
  3  2  2  0
  2  1  2  0
  6  2  1  0
  7  6  1  0
  7 12  1  0
 12 11  1  0
 11 10  1  0
 10  9  1  0
  9  8  1  0
  8  7  1  0
M  END
>  <id>  (12) 
30

>  <inchikey>  (12) 
PFWYRMPHHJKJBB-UHFFFAOYSA-N

>  <alias>  (12) 
d0283a

>  <name>  (12) 
d0283a

>  <smiles>  (12) 
CNS(=O)(=O)CC1CCCCC1

>  <path>  (12) 
/opt/xchem-fragalysis-2/maxwin/BulkDock/TARGETS/Flavi_NS5_RdRp/aligned_files/d0283a/d0283a.pdb

>  <distance_score>  (12) 
None

>  <energy_score>  (12) 
None

>  <compound>  (12) 
PFWYRMPHHJKJBB-UHFFFAOYSA-N

>  <compound_id>  (12) 
26

>  <target>  (12) 
Flavi_NS5_RdRp

$$$$
DNV2_NS5A-x0379_A_2101_1_DNV2_NS5A-x0249+A+1707+1
     RDKit          3D

 15 16  0  0  0  0  0  0  0  0999 V2000
   -6.8010  -72.5920  -17.4750 O   0  0  0  0  0  0  0  0  0  0  0  0
   -7.4130  -71.9720  -18.3370 C   0  0  0  0  0  0  0  0  0  0  0  0
   -8.7590  -71.5100  -18.2250 C   0  0  0  0  0  0  0  0  0  0  0  0
   -9.3660  -70.8600  -19.2330 C   0  0  0  0  0  0  0  0  0  0  0  0
   -8.6420  -70.6310  -20.4330 C   0  0  0  0  0  0  0  0  0  0  0  0
   -9.2710  -69.9280  -21.5920 C   0  0  0  0  0  0  0  0  0  0  0  0
   -7.4110  -71.0220  -20.5910 N   0  0  0  0  0  0  0  0  0  0  0  0
   -6.8190  -71.6810  -19.5460 N   0  0  0  0  0  0  0  0  0  0  0  0
   -5.4510  -72.0920  -19.7910 C   0  0  0  0  0  0  0  0  0  0  0  0
   -4.6670  -70.8780  -20.1390 C   0  0  0  0  0  0  0  0  0  0  0  0
   -3.7760  -70.5930  -21.0990 C   0  0  0  0  0  0  0  0  0  0  0  0
   -4.8460  -69.8030  -19.3460 O   0  0  0  0  0  0  0  0  0  0  0  0
   -4.0190  -68.7590  -19.8230 N   0  0  0  0  0  0  0  0  0  0  0  0
   -3.3890  -69.2640  -20.8670 C   0  0  0  0  0  0  0  0  0  0  0  0
   -2.3940  -68.4410  -21.6220 C   0  0  0  0  0  0  0  0  0  0  0  0
 15 14  1  0
 14 11  1  0
 11 10  2  0
 10  9  1  0
  9  8  1  0
  8  7  1  0
  7  5  2  0
  6  5  1  0
  5  4  1  0
  4  3  2  0
  3  2  1  0
  8  2  1  0
  2  1  2  0
 12 10  1  0
 13 12  1  0
 14 13  2  0
M  END
>  <id>  (13) 
35

>  <inchikey>  (13) 
PLCLGFAKZPXQFY-UHFFFAOYSA-N

>  <alias>  (13) 
d0379a

>  <name>  (13) 
d0379a

>  <smiles>  (13) 
Cc1cc(Cn2nc(C)ccc2=O)on1

>  <path>  (13) 
/opt/xchem-fragalysis-2/maxwin/BulkDock/TARGETS/Flavi_NS5_RdRp/aligned_files/d0379a/d0379a.pdb

>  <distance_score>  (13) 
None

>  <energy_score>  (13) 
None

>  <compound>  (13) 
PLCLGFAKZPXQFY-UHFFFAOYSA-N

>  <compound_id>  (13) 
30

>  <target>  (13) 
Flavi_NS5_RdRp

$$$$
DNV2_NS5A-x0414_A_1701_1_DNV2_NS5A-x0249+A+1707+1
     RDKit          3D

  6  6  0  0  0  0  0  0  0  0999 V2000
  -12.3440  -70.6070  -20.3230 F   0  0  0  0  0  0  0  0  0  0  0  0
  -13.5230  -69.9460  -20.2350 C   0  0  0  0  0  0  0  0  0  0  0  0
  -14.5900  -70.2180  -19.4290 C   0  0  0  0  0  0  0  0  0  0  0  0
  -15.5420  -69.3260  -19.7110 N   0  0  0  0  0  0  0  0  0  0  0  0
  -15.1540  -68.4610  -20.6710 N   0  0  0  0  0  0  0  0  0  0  0  0
  -13.9200  -68.8220  -21.0020 C   0  0  0  0  0  0  0  0  0  0  0  0
  2  1  1  0
  2  6  1  0
  6  5  2  0
  5  4  1  0
  4  3  1  0
  3  2  2  0
M  END
>  <id>  (14) 
38

>  <inchikey>  (14) 
RYXJXPHWRBWEEB-UHFFFAOYSA-N

>  <alias>  (14) 
d0414a

>  <name>  (14) 
d0414a

>  <smiles>  (14) 
Fc1cn[nH]c1

>  <path>  (14) 
/opt/xchem-fragalysis-2/maxwin/BulkDock/TARGETS/Flavi_NS5_RdRp/aligned_files/d0414a/d0414a.pdb

>  <distance_score>  (14) 
None

>  <energy_score>  (14) 
None

>  <compound>  (14) 
RYXJXPHWRBWEEB-UHFFFAOYSA-N

>  <compound_id>  (14) 
32

>  <target>  (14) 
Flavi_NS5_RdRp

$$$$
None
     RDKit          3D

 14 15  0  0  0  0  0  0  0  0999 V2000
   -6.9400  -73.2130  -20.3990 O   0  0  0  0  0  0  0  0  0  0  0  0
   -6.9300  -72.2400  -19.3640 S   0  0  0  0  0  0  0  0  0  0  0  0
   -6.8970  -72.6270  -17.9980 O   0  0  0  0  0  0  0  0  0  0  0  0
   -8.1930  -71.2890  -19.5840 N   0  0  0  0  0  0  0  0  0  0  0  0
   -9.4630  -71.4790  -18.8540 C   0  0  0  0  0  0  0  0  0  0  0  0
  -10.3910  -70.4830  -19.5120 C   0  0  0  0  0  0  0  0  0  0  0  0
   -9.9080  -70.4040  -20.9270 C   0  0  0  0  0  0  0  0  0  0  0  0
   -8.4000  -70.5270  -20.8340 C   0  0  0  0  0  0  0  0  0  0  0  0
   -5.7140  -71.2340  -19.6310 N   0  0  0  0  0  0  0  0  0  0  0  0
   -5.1860  -70.0520  -18.8990 C   0  0  0  0  0  0  0  0  0  0  0  0
   -4.6810  -71.0910  -20.6910 C   0  0  0  0  0  0  0  0  0  0  0  0
   -4.5020  -69.6430  -20.2120 C   0  0  0  0  0  0  0  0  0  0  0  0
   -3.1070  -69.3860  -20.0510 O   0  0  0  0  0  0  0  0  0  0  0  0
   -2.3910  -69.3530  -21.2680 C   0  0  0  0  0  0  0  0  0  0  0  0
 14 13  1  0
 13 12  1  0
 12 10  1  0
 10  9  1  0
 11  9  1  0
 12 11  1  0
  9  2  1  0
  3  2  2  0
  2  1  2  0
  4  2  1  0
  4  8  1  0
  8  7  1  0
  7  6  1  0
  6  5  1  0
  5  4  1  0
M  END
>  <id>  (15) 
44

>  <inchikey>  (15) 
KONUKKZPOYOKNK-UHFFFAOYSA-N

>  <alias>  (15) 
d0503a

>  <name>  (15) 
d0503a

>  <smiles>  (15) 
COC1CN(S(=O)(=O)N2CCCC2)C1

>  <path>  (15) 
/opt/xchem-fragalysis-2/maxwin/BulkDock/TARGETS/Flavi_NS5_RdRp/aligned_files/d0503a/d0503a.pdb

>  <distance_score>  (15) 
None

>  <energy_score>  (15) 
None

>  <compound>  (15) 
KONUKKZPOYOKNK-UHFFFAOYSA-N

>  <compound_id>  (15) 
37

>  <target>  (15) 
Flavi_NS5_RdRp

$$$$
None
     RDKit          3D

 16 17  0  0  0  0  0  0  0  0999 V2000
   -3.1800  -70.6910  -21.5760 O   0  0  0  0  0  0  0  0  0  0  0  0
   -3.6470  -70.0960  -20.6240 C   0  0  0  0  0  0  0  0  0  0  0  0
   -3.3160  -68.8570  -20.2440 N   0  0  0  0  0  0  0  0  0  0  0  0
   -2.5250  -67.9470  -21.0580 C   0  0  0  0  0  0  0  0  0  0  0  0
   -4.6880  -70.6230  -19.6360 C   0  0  1  0  0  0  0  0  0  0  0  0
   -4.5010  -69.7110  -18.4180 C   0  0  0  0  0  0  0  0  0  0  0  0
   -3.7910  -68.4600  -18.9280 C   0  0  0  0  0  0  0  0  0  0  0  0
   -6.0040  -70.5010  -20.2070 O   0  0  0  0  0  0  0  0  0  0  0  0
   -7.0970  -70.9910  -19.5220 C   0  0  0  0  0  0  0  0  0  0  0  0
   -8.3420  -70.6880  -20.0630 C   0  0  0  0  0  0  0  0  0  0  0  0
   -8.4070  -69.9380  -21.1770 F   0  0  0  0  0  0  0  0  0  0  0  0
   -9.5520  -71.0910  -19.5130 C   0  0  0  0  0  0  0  0  0  0  0  0
  -10.8980  -70.7560  -20.1050 C   0  0  0  0  0  0  0  0  0  0  0  0
   -9.4750  -71.8420  -18.3430 C   0  0  0  0  0  0  0  0  0  0  0  0
   -8.2540  -72.1590  -17.7680 C   0  0  0  0  0  0  0  0  0  0  0  0
   -7.0680  -71.7410  -18.3520 C   0  0  0  0  0  0  0  0  0  0  0  0
  4  3  1  0
  3  7  1  0
  7  6  1  0
  6  5  1  0
  5  8  1  6
  9  8  1  0
  9 16  2  0
 16 15  1  0
 15 14  2  0
 14 12  1  0
 13 12  1  0
 12 10  2  0
 10  9  1  0
 11 10  1  0
  5  2  1  0
  3  2  1  0
  2  1  2  0
M  END
>  <id>  (16) 
45

>  <inchikey>  (16) 
ZGHOVIJLBUUPON-SNVBAGLBSA-N

>  <alias>  (16) 
d0566a

>  <name>  (16) 
d0566a

>  <smiles>  (16) 
Cc1cccc(O[C@@H]2CCN(C)C2=O)c1F

>  <path>  (16) 
/opt/xchem-fragalysis-2/maxwin/BulkDock/TARGETS/Flavi_NS5_RdRp/aligned_files/d0566a/d0566a.pdb

>  <distance_score>  (16) 
None

>  <energy_score>  (16) 
None

>  <compound>  (16) 
ZGHOVIJLBUUPON-UHFFFAOYSA-N

>  <compound_id>  (16) 
38

>  <target>  (16) 
Flavi_NS5_RdRp

$$$$
DNV2_NS5A-x0567_A_1707_1_DNV2_NS5A-x0249+A+1707+1
     RDKit          3D

 13 13  0  0  0  0  0  0  0  0999 V2000
   -7.7570  -71.6860  -17.8300 F   0  0  0  0  0  0  0  0  0  0  0  0
   -8.9610  -71.2210  -18.2060 C   0  0  0  0  0  0  0  0  0  0  0  0
   -9.0450  -70.7530  -19.5130 C   0  0  0  0  0  0  0  0  0  0  0  0
   -7.8800  -70.7470  -20.4680 C   0  0  0  0  0  0  0  0  0  0  0  0
  -10.2860  -70.2760  -19.9230 C   0  0  0  0  0  0  0  0  0  0  0  0
  -11.3770  -70.2740  -19.0700 C   0  0  0  0  0  0  0  0  0  0  0  0
  -11.2600  -70.7470  -17.7760 C   0  0  0  0  0  0  0  0  0  0  0  0
  -10.0380  -71.2270  -17.3270 C   0  0  0  0  0  0  0  0  0  0  0  0
   -9.9140  -71.7930  -15.6590 S   0  0  0  0  0  0  0  0  0  0  0  0
   -8.6180  -71.4310  -15.1750 O   0  0  0  0  0  0  0  0  0  0  0  0
  -10.3270  -73.1620  -15.6280 O   0  0  0  0  0  0  0  0  0  0  0  0
  -10.9880  -70.9510  -14.8130 N   0  0  0  0  0  0  0  0  0  0  0  0
  -12.3990  -71.3050  -14.9080 C   0  0  0  0  0  0  0  0  0  0  0  0
 13 12  1  0
 12  9  1  0
 10  9  2  0
 11  9  2  0
  9  8  1  0
  8  7  2  0
  7  6  1  0
  6  5  2  0
  5  3  1  0
  4  3  1  0
  3  2  2  0
  8  2  1  0
  2  1  1  0
M  END
>  <id>  (17) 
46

>  <inchikey>  (17) 
PXJRMCHXJXWNJG-UHFFFAOYSA-N

>  <alias>  (17) 
d0567a

>  <name>  (17) 
d0567a

>  <smiles>  (17) 
CNS(=O)(=O)c1cccc(C)c1F

>  <path>  (17) 
/opt/xchem-fragalysis-2/maxwin/BulkDock/TARGETS/Flavi_NS5_RdRp/aligned_files/d0567a/d0567a.pdb

>  <distance_score>  (17) 
None

>  <energy_score>  (17) 
None

>  <compound>  (17) 
PXJRMCHXJXWNJG-UHFFFAOYSA-N

>  <compound_id>  (17) 
39

>  <target>  (17) 
Flavi_NS5_RdRp

$$$$
DNV2_NS5A-x0587_A_1801_1_DNV2_NS5A-x0249+A+1707+1
     RDKit          3D

 15 16  0  0  0  0  0  0  0  0999 V2000
   -9.6800  -71.2580  -17.3890 Cl  0  0  0  0  0  0  0  0  0  0  0  0
   -9.7600  -71.2390  -19.1270 C   0  0  0  0  0  0  0  0  0  0  0  0
  -10.8380  -70.5820  -19.7040 C   0  0  0  0  0  0  0  0  0  0  0  0
  -10.8020  -70.0660  -20.9340 N   0  0  0  0  0  0  0  0  0  0  0  0
   -9.6570  -70.2200  -21.5840 C   0  0  0  0  0  0  0  0  0  0  0  0
   -8.5510  -70.8270  -21.1560 N   0  0  0  0  0  0  0  0  0  0  0  0
   -8.6130  -71.3480  -19.9200 C   0  0  0  0  0  0  0  0  0  0  0  0
   -7.5070  -72.0570  -19.5180 N   0  0  0  0  0  0  0  0  0  0  0  0
   -7.4030  -72.7710  -18.2490 C   0  0  0  0  0  0  0  0  0  0  0  0
   -6.3570  -72.1930  -20.4120 C   0  0  0  0  0  0  0  0  0  0  0  0
   -4.9870  -71.8380  -19.8190 C   0  0  2  0  0  0  0  0  0  0  0  0
   -4.7880  -70.3350  -19.5900 C   0  0  0  0  0  0  0  0  0  0  0  0
   -3.4450  -70.0410  -19.9630 O   0  0  0  0  0  0  0  0  0  0  0  0
   -3.1820  -70.8560  -21.0840 C   0  0  0  0  0  0  0  0  0  0  0  0
   -3.8210  -72.1860  -20.7670 C   0  0  0  0  0  0  0  0  0  0  0  0
  9  8  1  0
 10  8  1  0
 11 10  1  6
 11 15  1  0
 15 14  1  0
 14 13  1  0
 13 12  1  0
 12 11  1  0
  8  7  1  0
  7  6  2  0
  6  5  1  0
  5  4  2  0
  4  3  1  0
  3  2  2  0
  7  2  1  0
  2  1  1  0
M  END
>  <id>  (18) 
48

>  <inchikey>  (18) 
OYKZBUOZAYBEHE-MRVPVSSYSA-N

>  <alias>  (18) 
d0587a

>  <name>  (18) 
d0587a

>  <smiles>  (18) 
CN(C[C@H]1CCOC1)c1ncncc1Cl

>  <path>  (18) 
/opt/xchem-fragalysis-2/maxwin/BulkDock/TARGETS/Flavi_NS5_RdRp/aligned_files/d0587a/d0587a.pdb

>  <distance_score>  (18) 
None

>  <energy_score>  (18) 
None

>  <compound>  (18) 
OYKZBUOZAYBEHE-UHFFFAOYSA-N

>  <compound_id>  (18) 
41

>  <target>  (18) 
Flavi_NS5_RdRp

$$$$
DNV2_NS5A-x0615_A_1608_1_DNV2_NS5A-x0249+A+1707+1
     RDKit          3D

 15 16  0  0  0  0  0  0  0  0999 V2000
   -9.9770  -70.4000  -24.2040 F   0  0  0  0  0  0  0  0  0  0  0  0
  -10.3170  -70.3840  -22.8830 C   0  0  0  0  0  0  0  0  0  0  0  0
  -11.6190  -70.1390  -22.5230 C   0  0  0  0  0  0  0  0  0  0  0  0
  -11.9820  -70.0550  -21.2380 N   0  0  0  0  0  0  0  0  0  0  0  0
  -11.0340  -70.2290  -20.3060 C   0  0  0  0  0  0  0  0  0  0  0  0
   -9.3340  -70.5690  -21.9440 C   0  0  0  0  0  0  0  0  0  0  0  0
   -9.6950  -70.4920  -20.6020 C   0  0  0  0  0  0  0  0  0  0  0  0
   -8.7480  -70.6630  -19.6050 N   0  0  0  0  0  0  0  0  0  0  0  0
   -7.9260  -71.8530  -19.4540 C   0  0  0  0  0  0  0  0  0  0  0  0
   -6.4770  -71.6580  -19.8090 C   0  0  0  0  0  0  0  0  0  0  0  0
   -5.7780  -72.2410  -20.8040 C   0  0  0  0  0  0  0  0  0  0  0  0
   -4.4830  -71.8200  -20.9930 N   0  0  0  0  0  0  0  0  0  0  0  0
   -5.4580  -70.5080  -19.0050 S   0  0  0  0  0  0  0  0  0  0  0  0
   -4.1850  -70.8990  -20.1230 C   0  0  0  0  0  0  0  0  0  0  0  0
   -2.8820  -70.1730  -20.1080 C   0  0  0  0  0  0  0  0  0  0  0  0
 15 14  1  0
 14 12  2  0
 12 11  1  0
 11 10  2  0
 10  9  1  0
  9  8  1  0
  8  7  1  0
  7  5  1  0
  5  4  2  0
  4  3  1  0
  3  2  2  0
  2  1  1  0
  6  2  1  0
  7  6  2  0
 13 10  1  0
 14 13  1  0
M  END
>  <id>  (19) 
50

>  <inchikey>  (19) 
SSOIKBIBPGCZFT-UHFFFAOYSA-N

>  <alias>  (19) 
d0615a

>  <name>  (19) 
d0615a

>  <smiles>  (19) 
Cc1ncc(CNc2cncc(F)c2)s1

>  <path>  (19) 
/opt/xchem-fragalysis-2/maxwin/BulkDock/TARGETS/Flavi_NS5_RdRp/aligned_files/d0615a/d0615a_hippo.pdb

>  <distance_score>  (19) 
None

>  <energy_score>  (19) 
None

>  <compound>  (19) 
SSOIKBIBPGCZFT-UHFFFAOYSA-N

>  <compound_id>  (19) 
43

>  <target>  (19) 
Flavi_NS5_RdRp

$$$$
DNV2_NS5A-x0644_A_1707_1_DNV2_NS5A-x0249+A+1707+1
     RDKit          3D

 16 17  0  0  0  0  0  0  0  0999 V2000
   -6.3600  -72.9650  -17.7400 O   0  0  0  0  0  0  0  0  0  0  0  0
   -6.2520  -72.1060  -18.5970 C   0  0  0  0  0  0  0  0  0  0  0  0
   -4.8360  -71.4510  -18.8570 C   0  0  0  0  0  0  0  0  0  0  0  0
   -3.7490  -72.5340  -18.8950 C   0  0  0  0  0  0  0  0  0  0  0  0
   -2.3810  -71.9060  -19.0790 C   0  0  0  0  0  0  0  0  0  0  0  0
   -2.3360  -71.0930  -20.3070 N   0  0  0  0  0  0  0  0  0  0  0  0
   -3.3460  -70.0230  -20.2800 C   0  0  0  0  0  0  0  0  0  0  0  0
   -4.7440  -70.6000  -20.1300 C   0  0  0  0  0  0  0  0  0  0  0  0
   -7.4560  -71.6380  -19.3470 C   0  0  0  0  0  0  0  0  0  0  0  0
   -7.5440  -71.6520  -20.7380 C   0  0  0  0  0  0  0  0  0  0  0  0
   -8.6610  -71.1490  -21.3840 C   0  0  0  0  0  0  0  0  0  0  0  0
   -8.5430  -71.1580  -18.6210 C   0  0  0  0  0  0  0  0  0  0  0  0
   -9.6660  -70.6630  -19.2620 C   0  0  0  0  0  0  0  0  0  0  0  0
   -9.7140  -70.6370  -20.6480 C   0  0  0  0  0  0  0  0  0  0  0  0
  -10.7310  -70.0820  -21.3880 O   0  0  0  0  0  0  0  0  0  0  0  0
  -12.0340  -70.0100  -20.8030 C   0  0  0  0  0  0  0  0  0  0  0  0
 16 15  1  0
 15 14  1  0
 14 11  1  0
 11 10  2  0
 10  9  1  0
 12  9  2  0
 13 12  1  0
 14 13  2  0
  9  2  1  0
  2  1  2  0
  3  2  1  0
  3  8  1  0
  8  7  1  0
  7  6  1  0
  6  5  1  0
  5  4  1  0
  4  3  1  0
M  END
>  <id>  (20) 
52

>  <inchikey>  (20) 
ZYKYHSIACDLOCE-UHFFFAOYSA-N

>  <alias>  (20) 
d0644a

>  <name>  (20) 
d0644a

>  <smiles>  (20) 
COc1ccc(C(=O)C2CCNCC2)cc1

>  <path>  (20) 
/opt/xchem-fragalysis-2/maxwin/BulkDock/TARGETS/Flavi_NS5_RdRp/aligned_files/d0644a/d0644a.pdb

>  <distance_score>  (20) 
None

>  <energy_score>  (20) 
None

>  <compound>  (20) 
ZYKYHSIACDLOCE-UHFFFAOYSA-N

>  <compound_id>  (20) 
44

>  <target>  (20) 
Flavi_NS5_RdRp

$$$$
DNV2_NS5A-x0693_A_1707_1_DNV2_NS5A-x0249+A+1707+1
     RDKit          3D

 18 20  0  0  0  0  0  0  0  0999 V2000
   -2.3110  -67.9860  -21.6070 N   0  0  0  0  0  0  0  0  0  0  0  0
   -2.9640  -68.7750  -21.1030 C   0  0  0  0  0  0  0  0  0  0  0  0
   -3.8140  -69.7360  -20.4460 C   0  0  0  0  0  0  0  0  0  0  0  0
   -4.6120  -69.3470  -19.3720 C   0  0  0  0  0  0  0  0  0  0  0  0
   -5.5100  -70.2430  -18.8180 C   0  0  0  0  0  0  0  0  0  0  0  0
   -5.6390  -71.5320  -19.3160 C   0  0  0  0  0  0  0  0  0  0  0  0
   -4.8090  -71.9230  -20.3580 C   0  0  0  0  0  0  0  0  0  0  0  0
   -3.9060  -71.0410  -20.9250 C   0  0  0  0  0  0  0  0  0  0  0  0
   -6.7120  -72.4560  -18.7930 C   0  0  0  0  0  0  0  0  0  0  0  0
   -8.0110  -71.7960  -18.6230 N   0  0  0  0  0  0  0  0  0  0  0  0
   -8.7840  -71.2310  -19.6250 C   0  0  0  0  0  0  0  0  0  0  0  0
   -9.9350  -70.7680  -18.9880 C   0  0  0  0  0  0  0  0  0  0  0  0
   -9.8640  -71.0320  -17.6160 N   0  0  0  0  0  0  0  0  0  0  0  0
   -8.7120  -71.6350  -17.4630 C   0  0  0  0  0  0  0  0  0  0  0  0
   -8.5850  -71.0810  -20.9910 C   0  0  0  0  0  0  0  0  0  0  0  0
   -9.5870  -70.4570  -21.7250 C   0  0  0  0  0  0  0  0  0  0  0  0
  -10.7500  -70.0010  -21.1060 C   0  0  0  0  0  0  0  0  0  0  0  0
  -10.9350  -70.1490  -19.7360 C   0  0  0  0  0  0  0  0  0  0  0  0
  2  1  3  0
  3  2  1  0
  3  8  2  0
  8  7  1  0
  7  6  2  0
  9  6  1  0
 10  9  1  0
 10 14  1  0
 14 13  2  0
 13 12  1  0
 12 18  2  0
 18 17  1  0
 17 16  2  0
 16 15  1  0
 15 11  2  0
 11 10  1  0
 12 11  1  0
  6  5  1  0
  5  4  2  0
  4  3  1  0
M  END
>  <id>  (21) 
53

>  <inchikey>  (21) 
KZMYEQMVROHICO-UHFFFAOYSA-N

>  <alias>  (21) 
d0693a

>  <name>  (21) 
d0693a

>  <smiles>  (21) 
N#Cc1ccc(Cn2cnc3ccccc32)cc1

>  <path>  (21) 
/opt/xchem-fragalysis-2/maxwin/BulkDock/TARGETS/Flavi_NS5_RdRp/aligned_files/d0693a/d0693a.pdb

>  <distance_score>  (21) 
None

>  <energy_score>  (21) 
None

>  <compound>  (21) 
KZMYEQMVROHICO-UHFFFAOYSA-N

>  <compound_id>  (21) 
45

>  <target>  (21) 
Flavi_NS5_RdRp

$$$$
DNV2_NS5A-x0749_A_1608_1_DNV2_NS5A-x0249+A+1707+1
     RDKit          3D

 14 14  0  0  0  0  0  0  0  0999 V2000
   -3.3010  -70.0860  -21.1850 O   0  0  0  0  0  0  0  0  0  0  0  0
   -3.7440  -71.3010  -20.5840 S   0  0  0  0  0  0  0  0  0  0  0  0
   -3.9220  -72.4730  -21.3750 O   0  0  0  0  0  0  0  0  0  0  0  0
   -2.6160  -71.6240  -19.4830 N   0  0  0  0  0  0  0  0  0  0  0  0
   -5.1340  -71.0270  -19.7250 N   0  0  0  0  0  0  0  0  0  0  0  0
   -5.0820  -69.9860  -18.6940 C   0  0  0  0  0  0  0  0  0  0  0  0
   -6.1910  -72.1140  -19.6610 C   0  0  0  0  0  0  0  0  0  0  0  0
   -7.6160  -71.6160  -19.5570 C   0  0  0  0  0  0  0  0  0  0  0  0
   -8.2190  -70.9580  -20.6250 C   0  0  0  0  0  0  0  0  0  0  0  0
   -9.5100  -70.5100  -20.4880 C   0  0  0  0  0  0  0  0  0  0  0  0
  -10.0780  -69.8630  -21.5370 F   0  0  0  0  0  0  0  0  0  0  0  0
  -10.2510  -70.6820  -19.3500 C   0  0  0  0  0  0  0  0  0  0  0  0
   -9.6590  -71.3520  -18.2920 C   0  0  0  0  0  0  0  0  0  0  0  0
   -8.3520  -71.8150  -18.3950 C   0  0  0  0  0  0  0  0  0  0  0  0
  6  5  1  0
  7  5  1  0
  8  7  1  0
  8 14  2  0
 14 13  1  0
 13 12  2  0
 12 10  1  0
 11 10  1  0
 10  9  2  0
  9  8  1  0
  5  2  1  0
  3  2  2  0
  2  1  2  0
  4  2  1  0
M  END
>  <id>  (22) 
55

>  <inchikey>  (22) 
MTNUKOMLMCLFRR-UHFFFAOYSA-N

>  <alias>  (22) 
d0749a

>  <name>  (22) 
d0749a

>  <smiles>  (22) 
CN(Cc1cccc(F)c1)S(N)(=O)=O

>  <path>  (22) 
/opt/xchem-fragalysis-2/maxwin/BulkDock/TARGETS/Flavi_NS5_RdRp/aligned_files/d0749a/d0749a.pdb

>  <distance_score>  (22) 
None

>  <energy_score>  (22) 
None

>  <compound>  (22) 
MTNUKOMLMCLFRR-UHFFFAOYSA-N

>  <compound_id>  (22) 
47

>  <target>  (22) 
Flavi_NS5_RdRp

$$$$
DNV2_NS5A-x0759_A_2101_1_DNV2_NS5A-x0249+A+1707+1
     RDKit          3D

 18 20  0  0  0  0  0  0  0  0999 V2000
   -5.4650  -72.3690  -20.8850 O   0  0  0  0  0  0  0  0  0  0  0  0
   -5.7190  -71.4140  -20.1790 C   0  0  0  0  0  0  0  0  0  0  0  0
   -7.1220  -71.1940  -19.7160 C   0  0  0  0  0  0  0  0  0  0  0  0
   -8.0370  -70.5400  -20.5400 C   0  0  0  0  0  0  0  0  0  0  0  0
   -9.3190  -70.3640  -20.0800 C   0  0  0  0  0  0  0  0  0  0  0  0
  -10.3800  -69.7630  -20.7190 O   0  0  0  0  0  0  0  0  0  0  0  0
  -11.5020  -69.9560  -19.8540 C   0  0  0  0  0  0  0  0  0  0  0  0
  -11.0300  -70.5170  -18.6260 O   0  0  0  0  0  0  0  0  0  0  0  0
   -9.7040  -70.8120  -18.8430 C   0  0  0  0  0  0  0  0  0  0  0  0
   -8.8190  -71.4610  -18.0070 C   0  0  0  0  0  0  0  0  0  0  0  0
   -7.5220  -71.6500  -18.4560 C   0  0  0  0  0  0  0  0  0  0  0  0
   -4.7770  -70.5370  -19.8120 N   0  0  0  0  0  0  0  0  0  0  0  0
   -3.3850  -70.7100  -20.2380 C   0  0  0  0  0  0  0  0  0  0  0  0
   -3.0070  -69.8770  -21.4470 C   0  0  0  0  0  0  0  0  0  0  0  0
   -2.6500  -68.4390  -21.1400 C   0  0  0  0  0  0  0  0  0  0  0  0
   -3.6010  -67.7040  -20.2190 C   0  0  0  0  0  0  0  0  0  0  0  0
   -3.9240  -68.3760  -18.9040 C   0  0  0  0  0  0  0  0  0  0  0  0
   -5.0620  -69.3760  -18.9640 C   0  0  0  0  0  0  0  0  0  0  0  0
  2  1  2  0
 12  2  1  0
 12 18  1  0
 18 17  1  0
 17 16  1  0
 16 15  1  0
 15 14  1  0
 14 13  1  0
 13 12  1  0
  3  2  1  0
  3 11  2  0
 11 10  1  0
 10  9  2  0
  9  8  1  0
  8  7  1  0
  7  6  1  0
  6  5  1  0
  9  5  1  0
  5  4  2  0
  4  3  1  0
M  END
>  <id>  (23) 
56

>  <inchikey>  (23) 
ABPXISKFLMGPJG-UHFFFAOYSA-N

>  <alias>  (23) 
d0759a

>  <name>  (23) 
d0759a

>  <smiles>  (23) 
O=C(c1ccc2c(c1)OCO2)N1CCCCCC1

>  <path>  (23) 
/opt/xchem-fragalysis-2/maxwin/BulkDock/TARGETS/Flavi_NS5_RdRp/aligned_files/d0759a/d0759a.pdb

>  <distance_score>  (23) 
None

>  <energy_score>  (23) 
None

>  <compound>  (23) 
ABPXISKFLMGPJG-UHFFFAOYSA-N

>  <compound_id>  (23) 
48

>  <target>  (23) 
Flavi_NS5_RdRp

$$$$
DNV2_NS5A-x0771_A_1701_1_DNV2_NS5A-x0249+A+1707+1
     RDKit          3D

 16 17  0  0  0  0  0  0  0  0999 V2000
   -5.3820  -73.4820  -16.9890 O   0  0  0  0  0  0  0  0  0  0  0  0
   -6.4870  -73.6640  -16.5100 C   0  0  0  0  0  0  0  0  0  0  0  0
   -6.6680  -74.3720  -15.3760 N   0  0  0  0  0  0  0  0  0  0  0  0
   -5.8080  -74.2560  -14.1970 C   0  0  0  0  0  0  0  0  0  0  0  0
   -6.6490  -73.9360  -12.9930 C   0  0  0  0  0  0  0  0  0  0  0  0
   -7.6690  -74.9070  -12.7970 O   0  0  0  0  0  0  0  0  0  0  0  0
   -8.5270  -74.9500  -13.9320 C   0  0  0  0  0  0  0  0  0  0  0  0
   -7.7760  -75.3100  -15.1830 C   0  0  0  0  0  0  0  0  0  0  0  0
   -7.7180  -73.0630  -17.1510 C   0  0  0  0  0  0  0  0  0  0  0  0
   -7.4050  -72.2670  -18.4110 C   0  0  0  0  0  0  0  0  0  0  0  0
   -8.6620  -72.1680  -19.2720 C   0  0  0  0  0  0  0  0  0  0  0  0
   -9.7520  -71.3700  -18.5700 C   0  0  0  0  0  0  0  0  0  0  0  0
  -10.8610  -70.9470  -19.5260 C   0  0  0  0  0  0  0  0  0  0  0  0
  -10.3430  -69.9990  -20.5890 C   0  0  0  0  0  0  0  0  0  0  0  0
   -8.8360  -70.0910  -20.7030 C   0  0  0  0  0  0  0  0  0  0  0  0
   -8.3650  -71.5390  -20.6250 C   0  0  0  0  0  0  0  0  0  0  0  0
  2  1  2  0
  9  2  1  0
 10  9  1  0
 11 10  1  0
 11 16  1  0
 16 15  1  0
 15 14  1  0
 14 13  1  0
 13 12  1  0
 12 11  1  0
  3  2  1  0
  3  8  1  0
  8  7  1  0
  7  6  1  0
  6  5  1  0
  5  4  1  0
  4  3  1  0
M  END
>  <id>  (24) 
57

>  <inchikey>  (24) 
KUIOCGNNDZSGKS-UHFFFAOYSA-N

>  <alias>  (24) 
d0771a

>  <name>  (24) 
d0771a

>  <smiles>  (24) 
O=C(CCC1CCCCC1)N1CCOCC1

>  <path>  (24) 
/opt/xchem-fragalysis-2/maxwin/BulkDock/TARGETS/Flavi_NS5_RdRp/aligned_files/d0771a/d0771a.pdb

>  <distance_score>  (24) 
None

>  <energy_score>  (24) 
None

>  <compound>  (24) 
KUIOCGNNDZSGKS-UHFFFAOYSA-N

>  <compound_id>  (24) 
49

>  <target>  (24) 
Flavi_NS5_RdRp

$$$$
DNV2_NS5A-x0787_A_2101_1_DNV2_NS5A-x0249+A+1707+1
     RDKit          3D

 18 20  0  0  0  0  0  0  0  0999 V2000
   -5.1190  -72.7190  -18.4300 O   0  0  0  0  0  0  0  0  0  0  0  0
   -5.3790  -71.8770  -19.2790 C   0  0  0  0  0  0  0  0  0  0  0  0
   -4.4230  -71.2710  -19.9980 N   0  0  0  0  0  0  0  0  0  0  0  0
   -4.6820  -70.2720  -21.0330 C   0  0  0  0  0  0  0  0  0  0  0  0
   -4.0400  -68.9540  -20.6460 C   0  0  0  0  0  0  0  0  0  0  0  0
   -2.9870  -71.5190  -19.8720 C   0  0  0  0  0  0  0  0  0  0  0  0
   -2.2730  -70.2390  -19.4590 C   0  0  0  0  0  0  0  0  0  0  0  0
   -2.5450  -69.1010  -20.4320 C   0  0  0  0  0  0  0  0  0  0  0  0
   -1.9060  -67.7990  -19.9820 C   0  0  0  0  0  0  0  0  0  0  0  0
   -6.8020  -71.5050  -19.5200 C   0  0  0  0  0  0  0  0  0  0  0  0
   -7.6340  -71.5990  -18.4210 O   0  0  0  0  0  0  0  0  0  0  0  0
   -8.8910  -71.2580  -18.8710 C   0  0  0  0  0  0  0  0  0  0  0  0
   -8.8470  -70.9500  -20.2230 C   0  0  0  0  0  0  0  0  0  0  0  0
   -7.4840  -71.1230  -20.6180 C   0  0  0  0  0  0  0  0  0  0  0  0
  -10.0450  -71.2120  -18.1160 C   0  0  0  0  0  0  0  0  0  0  0  0
  -11.2160  -70.8290  -18.7540 C   0  0  0  0  0  0  0  0  0  0  0  0
  -11.2110  -70.5020  -20.1040 C   0  0  0  0  0  0  0  0  0  0  0  0
  -10.0360  -70.5610  -20.8420 C   0  0  0  0  0  0  0  0  0  0  0  0
  9  8  1  0
  8  5  1  0
  5  4  1  0
  4  3  1  0
  6  3  1  0
  7  6  1  0
  8  7  1  0
  3  2  1  0
  2  1  2  0
 10  2  1  0
 10 14  2  0
 14 13  1  0
 13 18  2  0
 18 17  1  0
 17 16  2  0
 16 15  1  0
 15 12  2  0
 13 12  1  0
 12 11  1  0
 11 10  1  0
M  END
>  <id>  (25) 
59

>  <inchikey>  (25) 
XNQRJSVFBWPVGG-UHFFFAOYSA-N

>  <alias>  (25) 
d0787a

>  <name>  (25) 
d0787a

>  <smiles>  (25) 
CC1CCN(C(=O)c2cc3ccccc3o2)CC1

>  <path>  (25) 
/opt/xchem-fragalysis-2/maxwin/BulkDock/TARGETS/Flavi_NS5_RdRp/aligned_files/d0787a/d0787a.pdb

>  <distance_score>  (25) 
None

>  <energy_score>  (25) 
None

>  <compound>  (25) 
XNQRJSVFBWPVGG-UHFFFAOYSA-N

>  <compound_id>  (25) 
51

>  <target>  (25) 
Flavi_NS5_RdRp

$$$$
DNV2_NS5A-x0843_A_1707_1_DNV2_NS5A-x0249+A+1707+1
     RDKit          3D

 15 16  0  0  0  0  0  0  0  0999 V2000
   -8.0160  -71.6520  -21.0260 O   0  0  0  0  0  0  0  0  0  0  0  0
   -8.4250  -71.3040  -19.9230 C   0  0  0  0  0  0  0  0  0  0  0  0
   -7.5520  -71.3710  -18.6870 C   0  0  0  0  0  0  0  0  0  0  0  0
   -6.0650  -71.4560  -18.8900 C   0  0  0  0  0  0  0  0  0  0  0  0
   -6.8070  -72.6520  -18.4340 C   0  0  0  0  0  0  0  0  0  0  0  0
   -9.6800  -70.8540  -19.6930 N   0  0  0  0  0  0  0  0  0  0  0  0
  -10.7520  -70.7210  -20.6050 C   0  0  0  0  0  0  0  0  0  0  0  0
  -12.0250  -71.0640  -20.1690 C   0  0  0  0  0  0  0  0  0  0  0  0
  -13.1130  -70.9150  -21.0090 C   0  0  0  0  0  0  0  0  0  0  0  0
  -10.5900  -70.2360  -21.8980 C   0  0  0  0  0  0  0  0  0  0  0  0
  -11.6840  -70.0960  -22.7290 C   0  0  0  0  0  0  0  0  0  0  0  0
  -12.9600  -70.4280  -22.2980 C   0  0  0  0  0  0  0  0  0  0  0  0
  -14.1550  -70.2380  -23.1960 C   0  0  1  0  0  0  0  0  0  0  0  0
  -14.4270  -68.8020  -23.2270 N   0  0  0  0  0  0  0  0  0  0  0  0
  -13.8840  -70.7390  -24.6110 C   0  0  0  0  0  0  0  0  0  0  0  0
 13 15  1  6
 14 13  1  0
 13 12  1  0
 12  9  1  0
  9  8  2  0
  8  7  1  0
  7  6  1  0
  6  2  1  0
  2  1  2  0
  3  2  1  0
  3  5  1  0
  5  4  1  0
  4  3  1  0
 10  7  2  0
 11 10  1  0
 12 11  2  0
M  END
>  <id>  (26) 
65

>  <inchikey>  (26) 
CELFORIQAQLUCB-QMMMGPOBSA-N

>  <alias>  (26) 
d0843a

>  <name>  (26) 
d0843a

>  <smiles>  (26) 
C[C@H](N)c1ccc(NC(=O)C2CC2)cc1

>  <path>  (26) 
/opt/xchem-fragalysis-2/maxwin/BulkDock/TARGETS/Flavi_NS5_RdRp/aligned_files/d0843a/d0843a.pdb

>  <distance_score>  (26) 
None

>  <energy_score>  (26) 
None

>  <compound>  (26) 
CELFORIQAQLUCB-UHFFFAOYSA-N

>  <compound_id>  (26) 
55

>  <target>  (26) 
Flavi_NS5_RdRp

$$$$
DNV2_NS5A-x1149_A_1701_1_DNV2_NS5A-x0249+A+1707+1
     RDKit          3D

 14 15  0  0  0  0  0  0  0  0999 V2000
   -7.3550  -73.8660  -19.7830 N   0  0  0  0  0  0  0  0  0  0  0  0
   -7.2410  -72.4270  -19.4870 C   0  0  0  0  0  0  0  0  0  0  0  0
   -8.5060  -71.7050  -19.9330 C   0  0  0  0  0  0  0  0  0  0  0  0
   -8.5950  -71.1670  -21.2080 C   0  0  0  0  0  0  0  0  0  0  0  0
   -9.7230  -70.4670  -21.6100 C   0  0  0  0  0  0  0  0  0  0  0  0
  -10.7920  -70.3280  -20.7560 C   0  0  0  0  0  0  0  0  0  0  0  0
  -10.7360  -70.8950  -19.4960 C   0  0  0  0  0  0  0  0  0  0  0  0
   -9.5960  -71.5710  -19.0830 C   0  0  0  0  0  0  0  0  0  0  0  0
   -5.9430  -71.7930  -19.9840 C   0  0  0  0  0  0  0  0  0  0  0  0
   -5.5940  -70.5020  -19.6010 C   0  0  0  0  0  0  0  0  0  0  0  0
   -4.4010  -69.9300  -20.0270 C   0  0  0  0  0  0  0  0  0  0  0  0
   -3.5360  -70.6450  -20.8330 C   0  0  0  0  0  0  0  0  0  0  0  0
   -3.8710  -71.9260  -21.2260 C   0  0  0  0  0  0  0  0  0  0  0  0
   -5.0690  -72.4950  -20.8110 C   0  0  0  0  0  0  0  0  0  0  0  0
  2  1  1  0
  9  2  1  0
  9 14  2  0
 14 13  1  0
 13 12  2  0
 12 11  1  0
 11 10  2  0
 10  9  1  0
  3  2  1  0
  3  8  2  0
  8  7  1  0
  7  6  2  0
  6  5  1  0
  5  4  2  0
  4  3  1  0
M  END
>  <id>  (27) 
76

>  <inchikey>  (27) 
MGHPNCMVUAKAIE-UHFFFAOYSA-N

>  <alias>  (27) 
d1149a

>  <name>  (27) 
d1149a

>  <smiles>  (27) 
NC(c1ccccc1)c1ccccc1

>  <path>  (27) 
/opt/xchem-fragalysis-2/maxwin/BulkDock/TARGETS/Flavi_NS5_RdRp/aligned_files/d1149a/d1149a.pdb

>  <distance_score>  (27) 
None

>  <energy_score>  (27) 
None

>  <compound>  (27) 
MGHPNCMVUAKAIE-UHFFFAOYSA-N

>  <compound_id>  (27) 
63

>  <target>  (27) 
Flavi_NS5_RdRp

$$$$
DNV2_NS5A-x1212_A_1608_1_DNV2_NS5A-x0249+A+1707+1
     RDKit          3D

 16 17  0  0  0  0  0  0  0  0999 V2000
  -11.9750  -70.7120  -20.2400 C   0  0  0  0  0  0  0  0  0  0  0  0
  -10.4970  -70.9010  -20.0850 C   0  0  0  0  0  0  0  0  0  0  0  0
  -10.0710  -71.6110  -19.0220 N   0  0  0  0  0  0  0  0  0  0  0  0
   -8.7510  -71.8340  -18.8940 C   0  0  0  0  0  0  0  0  0  0  0  0
   -7.7940  -71.3850  -19.7870 C   0  0  0  0  0  0  0  0  0  0  0  0
   -8.2490  -70.6550  -20.8700 C   0  0  0  0  0  0  0  0  0  0  0  0
   -9.5970  -70.3980  -21.0220 C   0  0  0  0  0  0  0  0  0  0  0  0
   -6.3230  -71.6760  -19.5870 C   0  0  0  0  0  0  0  0  0  0  0  0
   -5.4040  -70.4790  -19.8340 C   0  0  0  0  0  0  0  0  0  0  0  0
   -3.9930  -70.8280  -19.7700 N   0  0  0  0  0  0  0  0  0  0  0  0
   -2.9700  -70.0080  -20.2300 C   0  0  0  0  0  0  0  0  0  0  0  0
   -3.2500  -68.7610  -20.7820 C   0  0  0  0  0  0  0  0  0  0  0  0
   -2.2210  -67.9690  -21.2650 C   0  0  0  0  0  0  0  0  0  0  0  0
   -0.9140  -68.3940  -21.1800 C   0  0  0  0  0  0  0  0  0  0  0  0
   -0.6280  -69.6240  -20.6310 C   0  0  0  0  0  0  0  0  0  0  0  0
   -1.6490  -70.4360  -20.1580 C   0  0  0  0  0  0  0  0  0  0  0  0
  2  1  1  0
  2  7  2  0
  7  6  1  0
  6  5  2  0
  8  5  1  0
  9  8  1  0
 10  9  1  0
 11 10  1  0
 11 16  2  0
 16 15  1  0
 15 14  2  0
 14 13  1  0
 13 12  2  0
 12 11  1  0
  5  4  1  0
  4  3  2  0
  3  2  1  0
M  END
>  <id>  (28) 
79

>  <inchikey>  (28) 
NYZHDBKVHXVXBL-UHFFFAOYSA-N

>  <alias>  (28) 
d1212a

>  <name>  (28) 
d1212a

>  <smiles>  (28) 
Cc1ccc(CCNc2ccccc2)cn1

>  <path>  (28) 
/opt/xchem-fragalysis-2/maxwin/BulkDock/TARGETS/Flavi_NS5_RdRp/aligned_files/d1212a/d1212a.pdb

>  <distance_score>  (28) 
None

>  <energy_score>  (28) 
None

>  <compound>  (28) 
NYZHDBKVHXVXBL-UHFFFAOYSA-N

>  <compound_id>  (28) 
66

>  <target>  (28) 
Flavi_NS5_RdRp

$$$$
None
     RDKit          3D

 19 20  0  0  0  0  0  0  0  0999 V2000
  -12.3830  -70.5700  -24.6750 C   0  0  0  0  0  0  0  0  0  0  0  0
  -12.5120  -70.0490  -23.2590 C   0  0  0  0  0  0  0  0  0  0  0  0
  -13.6120  -69.2820  -22.8880 C   0  0  0  0  0  0  0  0  0  0  0  0
  -10.5320  -69.1980  -25.1610 O   0  0  0  0  0  0  0  0  0  0  0  0
  -16.8220  -69.4320  -20.4140 O   0  0  0  0  0  0  0  0  0  0  0  0
  -15.3850  -68.6800  -18.8830 O   0  0  0  0  0  0  0  0  0  0  0  0
   -9.7920  -70.9670  -17.8680 C   0  0  0  0  0  0  0  0  0  0  0  0
   -8.7320  -71.0930  -18.6920 C   0  0  0  0  0  0  0  0  0  0  0  0
  -11.5640  -70.3830  -22.2930 C   0  0  0  0  0  0  0  0  0  0  0  0
  -11.6630  -69.6480  -25.6240 C   0  0  0  0  0  0  0  0  0  0  0  0
  -12.0880  -69.3700  -26.7250 O   0  0  0  0  0  0  0  0  0  0  0  0
  -11.7220  -69.9670  -20.9710 C   0  0  0  0  0  0  0  0  0  0  0  0
  -12.8300  -69.2000  -20.6230 C   0  0  0  0  0  0  0  0  0  0  0  0
  -13.7870  -68.8600  -21.5730 C   0  0  0  0  0  0  0  0  0  0  0  0
  -15.0260  -68.0900  -21.1710 C   0  0  0  0  0  0  0  0  0  0  0  0
  -15.7640  -68.7470  -20.0350 C   0  0  0  0  0  0  0  0  0  0  0  0
  -10.7500  -70.3720  -19.9400 C   0  0  0  0  0  0  0  0  0  0  0  0
  -10.9670  -70.5520  -18.5640 C   0  0  0  0  0  0  0  0  0  0  0  0
   -9.1140  -70.7110  -20.3240 S   0  0  0  0  0  0  0  0  0  0  0  0
  7  8  2  0
  7 18  1  0
  8 19  1  0
 18 17  2  0
 19 17  1  0
 17 12  1  0
 12 13  2  0
 12  9  1  0
 13 14  1  0
  9  2  2  0
 14 15  1  0
 14  3  2  0
  2  3  1  0
  2  1  1  0
 15 16  1  0
 16  5  2  0
 16  6  1  0
  1 10  1  0
 11 10  2  0
 10  4  1  0
M  END
>  <id>  (29) 
224

>  <inchikey>  (29) 
KZPRFEGRESQBAV-UHFFFAOYSA-N

>  <alias>  (29) 
5hmx-a

>  <name>  (29) 
5hmx-a

>  <smiles>  (29) 
O=C(O)Cc1cc(CC(=O)O)cc(-c2cccs2)c1

>  <path>  (29) 
/opt/xchem-fragalysis-2/maxwin/BulkDock/TARGETS/Flavi_NS5_RdRp/aligned_files/5hmx-a/5hmx-a.pdb

>  <distance_score>  (29) 
None

>  <energy_score>  (29) 
None

>  <compound>  (29) 
KZPRFEGRESQBAV-UHFFFAOYSA-N

>  <compound_id>  (29) 
158

>  <target>  (29) 
Flavi_NS5_RdRp

$$$$
