DNV2_NS5A-x0644_A_1707_1_DNV2_NS5A-x0249+A+1707+1
     RDKit          3D

 16 17  0  0  0  0  0  0  0  0999 V2000
   -6.3600  -72.9650  -17.7400 O   0  0  0  0  0  0  0  0  0  0  0  0
   -6.2520  -72.1060  -18.5970 C   0  0  0  0  0  0  0  0  0  0  0  0
   -4.8360  -71.4510  -18.8570 C   0  0  0  0  0  0  0  0  0  0  0  0
   -3.7490  -72.5340  -18.8950 C   0  0  0  0  0  0  0  0  0  0  0  0
   -2.3810  -71.9060  -19.0790 C   0  0  0  0  0  0  0  0  0  0  0  0
   -2.3360  -71.0930  -20.3070 N   0  0  0  0  0  0  0  0  0  0  0  0
   -3.3460  -70.0230  -20.2800 C   0  0  0  0  0  0  0  0  0  0  0  0
   -4.7440  -70.6000  -20.1300 C   0  0  0  0  0  0  0  0  0  0  0  0
   -7.4560  -71.6380  -19.3470 C   0  0  0  0  0  0  0  0  0  0  0  0
   -7.5440  -71.6520  -20.7380 C   0  0  0  0  0  0  0  0  0  0  0  0
   -8.6610  -71.1490  -21.3840 C   0  0  0  0  0  0  0  0  0  0  0  0
   -8.5430  -71.1580  -18.6210 C   0  0  0  0  0  0  0  0  0  0  0  0
   -9.6660  -70.6630  -19.2620 C   0  0  0  0  0  0  0  0  0  0  0  0
   -9.7140  -70.6370  -20.6480 C   0  0  0  0  0  0  0  0  0  0  0  0
  -10.7310  -70.0820  -21.3880 O   0  0  0  0  0  0  0  0  0  0  0  0
  -12.0340  -70.0100  -20.8030 C   0  0  0  0  0  0  0  0  0  0  0  0
 16 15  1  0
 15 14  1  0
 14 11  1  0
 11 10  2  0
 10  9  1  0
 12  9  2  0
 13 12  1  0
 14 13  2  0
  9  2  1  0
  2  1  2  0
  3  2  1  0
  3  8  1  0
  8  7  1  0
  7  6  1  0
  6  5  1  0
  5  4  1  0
  4  3  1  0
M  END
$$$$

