DNV2_NS5A-x0411_A_1708_1_DNV2_NS5A-x0411+A+1707+1
     RDKit          3D

 13 14  0  0  0  0  0  0  0  0999 V2000
  -20.4630  -32.6380  -15.4440 C   0  0  0  0  0  0  0  0  0  0  0  0
  -20.6810  -31.5210  -16.3050 O   0  0  0  0  0  0  0  0  0  0  0  0
  -21.5290  -30.5410  -15.8730 C   0  0  0  0  0  0  0  0  0  0  0  0
  -20.9210  -29.4100  -15.3190 C   0  0  0  0  0  0  0  0  0  0  0  0
  -21.7380  -28.3580  -14.9030 C   0  0  0  0  0  0  0  0  0  0  0  0
  -23.1120  -28.4270  -15.0620 C   0  0  0  0  0  0  0  0  0  0  0  0
  -23.6920  -29.5430  -15.6130 C   0  0  0  0  0  0  0  0  0  0  0  0
  -22.9090  -30.6130  -16.0100 C   0  0  0  0  0  0  0  0  0  0  0  0
  -19.4640  -29.2630  -15.2240 C   0  0  0  0  0  0  0  0  0  0  0  0
  -18.9230  -28.1630  -14.6210 O   0  0  0  0  0  0  0  0  0  0  0  0
  -17.5880  -28.3300  -14.7910 C   0  0  0  0  0  0  0  0  0  0  0  0
  -17.3390  -29.4570  -15.4330 N   0  0  0  0  0  0  0  0  0  0  0  0
  -18.5640  -30.0510  -15.7060 N   0  0  0  0  0  0  0  0  0  0  0  0
  2  1  1  0
  3  2  1  0
  3  8  2  0
  8  7  1  0
  7  6  2  0
  6  5  1  0
  5  4  2  0
  4  3  1  0
  9  4  1  0
  9 13  2  0
 13 12  1  0
 12 11  2  0
 11 10  1  0
 10  9  1  0
M  END
$$$$

