Zika_NS5A-x0307_A_1013_1_Zika_NS5A-x0411+A+1104+1
     RDKit          3D

 13 14  0  0  0  0  0  0  0  0999 V2000
   -3.4380  -34.2140  -24.2030 N   0  0  0  0  0  0  0  0  0  0  0  0
   -3.0470  -32.9060  -24.2810 C   0  0  0  0  0  0  0  0  0  0  0  0
   -1.7100  -32.5660  -24.5550 C   0  0  0  0  0  0  0  0  0  0  0  0
   -1.3250  -31.2360  -24.6050 C   0  0  0  0  0  0  0  0  0  0  0  0
   -2.2560  -30.2320  -24.3800 C   0  0  0  0  0  0  0  0  0  0  0  0
   -3.9710  -31.8860  -24.0650 C   0  0  0  0  0  0  0  0  0  0  0  0
   -3.5830  -30.5500  -24.1050 C   0  0  0  0  0  0  0  0  0  0  0  0
   -4.5790  -29.4900  -23.8320 C   0  0  0  0  0  0  0  0  0  0  0  0
   -5.9390  -29.7460  -23.6660 N   0  0  0  0  0  0  0  0  0  0  0  0
   -4.2550  -28.2330  -23.7320 N   0  0  0  0  0  0  0  0  0  0  0  0
   -5.5080  -27.5950  -23.4860 O   0  0  0  0  0  0  0  0  0  0  0  0
   -6.4290  -28.5690  -23.4600 C   0  0  0  0  0  0  0  0  0  0  0  0
   -7.8240  -28.1800  -23.1570 C   0  0  0  0  0  0  0  0  0  0  0  0
 13 12  1  0
 12  9  2  0
  9  8  1  0
 10  8  2  0
 11 10  1  0
 12 11  1  0
  8  7  1  0
  7  5  1  0
  5  4  2  0
  4  3  1  0
  3  2  2  0
  2  1  1  0
  6  2  1  0
  7  6  2  0
M  END
$$$$

