DNV2_NS5A-x0379_A_2101_1_DNV2_NS5A-x0249+A+1707+1
     RDKit          3D

 15 16  0  0  0  0  0  0  0  0999 V2000
   -6.8010  -72.5920  -17.4750 O   0  0  0  0  0  0  0  0  0  0  0  0
   -7.4130  -71.9720  -18.3370 C   0  0  0  0  0  0  0  0  0  0  0  0
   -8.7590  -71.5100  -18.2250 C   0  0  0  0  0  0  0  0  0  0  0  0
   -9.3660  -70.8600  -19.2330 C   0  0  0  0  0  0  0  0  0  0  0  0
   -8.6420  -70.6310  -20.4330 C   0  0  0  0  0  0  0  0  0  0  0  0
   -9.2710  -69.9280  -21.5920 C   0  0  0  0  0  0  0  0  0  0  0  0
   -7.4110  -71.0220  -20.5910 N   0  0  0  0  0  0  0  0  0  0  0  0
   -6.8190  -71.6810  -19.5460 N   0  0  0  0  0  0  0  0  0  0  0  0
   -5.4510  -72.0920  -19.7910 C   0  0  0  0  0  0  0  0  0  0  0  0
   -4.6670  -70.8780  -20.1390 C   0  0  0  0  0  0  0  0  0  0  0  0
   -3.7760  -70.5930  -21.0990 C   0  0  0  0  0  0  0  0  0  0  0  0
   -4.8460  -69.8030  -19.3460 O   0  0  0  0  0  0  0  0  0  0  0  0
   -4.0190  -68.7590  -19.8230 N   0  0  0  0  0  0  0  0  0  0  0  0
   -3.3890  -69.2640  -20.8670 C   0  0  0  0  0  0  0  0  0  0  0  0
   -2.3940  -68.4410  -21.6220 C   0  0  0  0  0  0  0  0  0  0  0  0
 15 14  1  0
 14 11  1  0
 11 10  2  0
 10  9  1  0
  9  8  1  0
  8  7  1  0
  7  5  2  0
  6  5  1  0
  5  4  1  0
  4  3  2  0
  3  2  1  0
  8  2  1  0
  2  1  2  0
 12 10  1  0
 13 12  1  0
 14 13  2  0
M  END
$$$$

