Zika_NS5A-x0186_A_1101_1_Zika_NS5A-x0136+A+1016+1
     RDKit          3D

 17 18  0  0  0  0  0  0  0  0999 V2000
  -23.7060  -58.4220   -0.1390 F   0  0  0  0  0  0  0  0  0  0  0  0
  -24.5980  -58.9110   -1.0270 C   0  0  0  0  0  0  0  0  0  0  0  0
  -24.8790  -60.2530   -0.9920 C   0  0  0  0  0  0  0  0  0  0  0  0
  -25.8130  -60.7590   -1.8740 C   0  0  0  0  0  0  0  0  0  0  0  0
  -26.4910  -59.9330   -2.7590 C   0  0  0  0  0  0  0  0  0  0  0  0
  -27.5380  -60.4930   -3.6930 C   0  0  0  0  0  0  0  0  0  0  0  0
  -26.1790  -58.5790   -2.7650 C   0  0  0  0  0  0  0  0  0  0  0  0
  -25.1990  -58.0440   -1.9230 C   0  0  0  0  0  0  0  0  0  0  0  0
  -24.6870  -56.6520   -2.1570 C   0  0  0  0  0  0  0  0  0  0  0  0
  -24.1070  -56.4070   -3.1970 O   0  0  0  0  0  0  0  0  0  0  0  0
  -24.8940  -55.7100   -1.2140 N   0  0  0  0  0  0  0  0  0  0  0  0
  -25.6980  -55.9160   -0.0080 C   0  0  0  0  0  0  0  0  0  0  0  0
  -24.2300  -54.3970   -1.2440 C   0  0  0  0  0  0  0  0  0  0  0  0
  -25.2060  -53.2640   -0.9850 C   0  0  0  0  0  0  0  0  0  0  0  0
  -26.0750  -53.4510    0.1830 N   0  0  0  0  0  0  0  0  0  0  0  0
  -26.7350  -54.7870    0.1760 C   0  0  2  0  0  0  0  0  0  0  0  0
  -27.4650  -55.0300    1.4890 C   0  0  0  0  0  0  0  0  0  0  0  0
 16 17  1  1
 16 12  1  0
 12 11  1  0
 13 11  1  0
 14 13  1  0
 15 14  1  0
 16 15  1  0
 11  9  1  0
 10  9  2  0
  9  8  1  0
  8  7  2  0
  7  5  1  0
  6  5  1  0
  5  4  2  0
  4  3  1  0
  3  2  2  0
  8  2  1  0
  2  1  1  0
M  END
$$$$

