DNV2_NS5A-x0781_A_2101_1_DNV2_NS5A-x0249+A+1707+1
     RDKit          3D

 18 20  0  0  0  0  0  0  0  0999 V2000
   -6.3560  -72.3030  -17.7830 O   0  0  0  0  0  0  0  0  0  0  0  0
   -7.3840  -72.9760  -17.7670 C   0  0  0  0  0  0  0  0  0  0  0  0
   -8.4100  -72.7050  -18.8280 C   0  0  0  0  0  0  0  0  0  0  0  0
   -7.9020  -72.3310  -20.0420 O   0  0  0  0  0  0  0  0  0  0  0  0
   -8.9840  -72.0650  -20.8430 C   0  0  0  0  0  0  0  0  0  0  0  0
  -10.1180  -72.2630  -20.1790 C   0  0  0  0  0  0  0  0  0  0  0  0
   -9.7630  -72.6800  -18.8700 C   0  0  0  0  0  0  0  0  0  0  0  0
   -7.5810  -73.9460  -16.8510 N   0  0  0  0  0  0  0  0  0  0  0  0
   -6.6040  -74.1930  -15.7860 C   0  0  0  0  0  0  0  0  0  0  0  0
   -7.2740  -74.0350  -14.4340 C   0  0  0  0  0  0  0  0  0  0  0  0
   -8.7020  -74.8890  -16.7580 C   0  0  0  0  0  0  0  0  0  0  0  0
   -9.3810  -74.7580  -15.4070 C   0  0  0  0  0  0  0  0  0  0  0  0
   -8.4070  -74.9620  -14.3270 N   0  0  0  0  0  0  0  0  0  0  0  0
   -8.5880  -75.8970  -13.3710 C   0  0  0  0  0  0  0  0  0  0  0  0
   -9.6850  -76.3790  -13.1560 O   0  0  0  0  0  0  0  0  0  0  0  0
   -7.3880  -76.3410  -12.5570 C   0  0  0  0  0  0  0  0  0  0  0  0
   -7.4940  -77.6730  -11.8610 C   0  0  0  0  0  0  0  0  0  0  0  0
   -7.5810  -76.4270  -11.0640 C   0  0  0  0  0  0  0  0  0  0  0  0
 15 14  2  0
 16 14  1  0
 16 18  1  0
 18 17  1  0
 17 16  1  0
 14 13  1  0
 13 10  1  0
 10  9  1  0
  9  8  1  0
 11  8  1  0
 12 11  1  0
 13 12  1  0
  8  2  1  0
  2  1  2  0
  3  2  1  0
  3  7  2  0
  7  6  1  0
  6  5  2  0
  5  4  1  0
  4  3  1  0
M  END
$$$$

