ver_1.2
     RDKit          3D

 16 16  0  0  0  0  0  0  0  0999 V2000
   -2.1504    2.2641   -1.5106 O   0  0  0  0  0  0  0  0  0  0  0  0
   -1.8311    1.5802   -0.1993 S   0  0  0  0  0  0  0  0  0  0  0  0
   -2.1580    2.5703    0.8843 O   0  0  0  0  0  0  0  0  0  0  0  0
   -0.1566    1.2316   -0.1856 N   0  0  0  0  0  0  0  0  0  0  0  0
    0.2901    0.5912    1.0115 C   0  0  0  0  0  0  0  0  0  0  0  0
    1.7642    0.3358    0.9114 C   0  0  0  0  0  0  0  0  0  0  0  0
    2.1608   -0.5446   -0.2384 C   0  0  0  0  0  0  0  0  0  0  0  0
    3.6782   -0.6802   -0.1657 C   0  0  0  0  0  0  0  0  0  0  0  0
    4.0352   -1.2452    1.0310 F   0  0  0  0  0  0  0  0  0  0  0  0
    4.1742   -1.4507   -1.1982 F   0  0  0  0  0  0  0  0  0  0  0  0
    4.2053    0.5921   -0.2472 F   0  0  0  0  0  0  0  0  0  0  0  0
   -2.8758    0.1810   -0.0873 C   0  0  0  0  0  0  0  0  0  0  0  0
   -2.6592   -0.7665   -1.2245 C   0  0  0  0  0  0  0  0  0  0  0  0
   -3.1123   -2.0822   -0.5848 C   0  0  0  0  0  0  0  0  0  0  0  0
   -2.6183   -1.9764    0.7706 N   0  0  0  0  0  0  0  0  0  0  0  0
   -2.7463   -0.6005    1.1869 C   0  0  0  0  0  0  0  0  0  0  0  0
  1  2  2  0
  2  3  2  0
  2  4  1  0
  4  5  1  0
  5  6  1  0
  6  7  1  0
  7  8  1  0
  8  9  1  0
  8 10  1  0
  8 11  1  0
  2 12  1  0
 12 13  1  0
 13 14  1  0
 14 15  1  0
 15 16  1  0
 16 12  1  0
M  END
>  <ref_url>  (1) 
https://github.com/mwinokan/BulkDock

>  <submitter_name>  (1) 
Max Winokan

>  <submitter_email>  (1) 
max.winokan@diamond.ac.uk

>  <submitter_institution>  (1) 
DLS

>  <generation_date>  (1) 
2024-12-03

>  <method>  (1) 
Knitwork_Thumb_Impure

>  <SLURM_JOB_ID>  (1) 
SLURM_JOB_ID

>  <SLURM_JOB_NAME>  (1) 
SLURM_JOB_NAME

>  <csv_name>  (1) 
csv_name

>  <scratch_subdir>  (1) 
scratch_subdir

>  <fragmenstein_runtime>  (1) 
fragmenstein_runtime

>  <fragmenstein_outcome>  (1) 
fragmenstein_outcome

>  <fragmenstein_mode>  (1) 
fragmenstein_mode

>  <fragmenstein_error>  (1) 
fragmenstein_error

>  <exports>  (1) 
exports

>  <HIPPO Pose ID>  (1) 
HIPPO Pose ID

>  <HIPPO Compound ID>  (1) 
HIPPO Compound ID

>  <smiles>  (1) 
smiles

>  <ref_pdb>  (1) 
protein reference

>  <ref_mols>  (1) 
fragment inspirations

>  <original ID>  (1) 
original ID

>  <compound inchikey>  (1) 
compound inchikey

$$$$
35531
     RDKit          3D

 16 16  0  0  0  0  0  0  0  0999 V2000
  -14.4306  -70.2266  -19.0550 O   0  0  0  0  0  0  0  0  0  0  0  0
  -13.7154  -69.7795  -20.2346 S   0  0  0  0  0  0  0  0  0  0  0  0
  -12.7531  -68.7088  -20.1457 O   0  0  0  0  0  0  0  0  0  0  0  0
  -12.9427  -71.1367  -20.8394 N   0  0  0  0  0  0  0  0  0  0  0  0
  -11.5913  -71.0010  -21.4035 C   0  0  0  0  0  0  0  0  0  0  0  0
  -10.5614  -71.2222  -20.3075 C   0  0  0  0  0  0  0  0  0  0  0  0
   -9.1617  -70.8067  -20.7497 C   0  0  0  0  0  0  0  0  0  0  0  0
   -8.1575  -71.1381  -19.6717 C   0  0  0  0  0  0  0  0  0  0  0  0
   -6.9417  -70.6393  -19.9690 F   0  0  0  0  0  0  0  0  0  0  0  0
   -8.0321  -72.4708  -19.5151 F   0  0  0  0  0  0  0  0  0  0  0  0
   -8.5536  -70.6459  -18.4789 F   0  0  0  0  0  0  0  0  0  0  0  0
  -14.8921  -69.3731  -21.5040 C   0  0  1  0  0  0  0  0  0  0  0  0
  -14.2965  -69.1713  -22.8906 C   0  0  0  0  0  0  0  0  0  0  0  0
  -15.0172  -70.1762  -23.7741 C   0  0  0  0  0  0  0  0  0  0  0  0
  -16.3105  -70.3869  -23.1102 N   0  0  0  0  0  0  0  0  0  0  0  0
  -15.9456  -70.4466  -21.6849 C   0  0  0  0  0  0  0  0  0  0  0  0
  1  2  2  0
  2  3  2  0
  2  4  1  0
  4  5  1  0
  5  6  1  0
  6  7  1  0
  7  8  1  0
  8  9  1  0
  8 10  1  0
  8 11  1  0
 12  2  1  1
 12 13  1  0
 13 14  1  0
 14 15  1  0
 15 16  1  0
 16 12  1  0
M  END
>  <SLURM_JOB_NAME>  (1) 
BulkDock.place:Flavi_NS5_RdRp:RdRp_knitwork_thumb_site_2_impure_split4000_batch001

>  <fragmenstein_error>  (1) 
['']

>  <HIPPO Compound ID>  (1) 
1928

>  <alias>  (1) 
None

>  <energy_score>  (1) 
-29.303057

>  <exports>  (1) 
['/opt/xchem-fragalysis-2/maxwin/BulkDock/OUTPUTS/RdRp_knitwork_thumb_site_2_impure_split4000_batch001_211014.sdf']

>  <fragmenstein_outcome>  (1) 
['acceptable']

>  <fragmenstein_mode>  (1) 
['expansion']

>  <HIPPO Pose ID>  (1) 
35531

>  <name>  (1) 
FWCZLIJQXPJLIZ-ZETCQYMHSA-N

>  <fragmenstein_runtime>  (1) 
[14.148914575576782]

>  <csv_name>  (1) 
RdRp_knitwork_thumb_site_2_impure_split4000_batch001.csv

>  <inchikey>  (1) 
FWCZLIJQXPJLIZ-ZETCQYMHSA-N

>  <original SMILES>  (1) 
O=S(=O)(NCCCC(F)(F)F)[C@H]1CCNC1

>  <scratch_subdir>  (1) 
['/opt/xchem-fragalysis-2/maxwin/BulkDock/SCRATCH/211014/C1928-P17']

>  <tags>  (1) 
['Fragmenstein placed']

>  <distance_score>  (1) 
0.642167

>  <original ID>  (1) 
FWCZLIJQXPJLIZ-ZETCQYMHSA-N

>  <ref_mols>  (1) 
d0174a,d0503a

>  <SLURM_JOB_ID>  (1) 
211014

>  <ref_pdb>  (1) 
d0174a

$$$$
35539
     RDKit          3D

 16 16  0  0  0  0  0  0  0  0999 V2000
  -14.3862  -70.1993  -19.0188 O   0  0  0  0  0  0  0  0  0  0  0  0
  -13.6571  -69.7920  -20.2041 S   0  0  0  0  0  0  0  0  0  0  0  0
  -12.6815  -68.7310  -20.1432 O   0  0  0  0  0  0  0  0  0  0  0  0
  -12.8912  -71.1756  -20.7584 N   0  0  0  0  0  0  0  0  0  0  0  0
  -11.5422  -71.0597  -21.3332 C   0  0  0  0  0  0  0  0  0  0  0  0
  -10.5064  -71.2488  -20.2393 C   0  0  0  0  0  0  0  0  0  0  0  0
   -9.1162  -70.8257  -20.7028 C   0  0  0  0  0  0  0  0  0  0  0  0
   -8.1014  -71.1267  -19.6276 C   0  0  0  0  0  0  0  0  0  0  0  0
   -6.8909  -70.6295  -19.9473 F   0  0  0  0  0  0  0  0  0  0  0  0
   -7.9693  -72.4553  -19.4430 F   0  0  0  0  0  0  0  0  0  0  0  0
   -8.4901  -70.6090  -18.4435 F   0  0  0  0  0  0  0  0  0  0  0  0
  -14.8115  -69.4132  -21.5029 C   0  0  1  0  0  0  0  0  0  0  0  0
  -14.2219  -69.4351  -22.9049 C   0  0  0  0  0  0  0  0  0  0  0  0
  -15.0562  -70.4485  -23.6704 C   0  0  0  0  0  0  0  0  0  0  0  0
  -16.3475  -70.4661  -22.9750 N   0  0  0  0  0  0  0  0  0  0  0  0
  -15.9647  -70.3903  -21.5557 C   0  0  0  0  0  0  0  0  0  0  0  0
  1  2  2  0
  2  3  2  0
  2  4  1  0
  4  5  1  0
  5  6  1  0
  6  7  1  0
  7  8  1  0
  8  9  1  0
  8 10  1  0
  8 11  1  0
 12  2  1  1
 12 13  1  0
 13 14  1  0
 14 15  1  0
 15 16  1  0
 16 12  1  0
M  END
>  <SLURM_JOB_NAME>  (2) 
BulkDock.place:Flavi_NS5_RdRp:RdRp_knitwork_thumb_site_2_impure_split4000_batch001

>  <fragmenstein_error>  (2) 
['']

>  <HIPPO Compound ID>  (2) 
1928

>  <alias>  (2) 
None

>  <energy_score>  (2) 
-28.553265

>  <exports>  (2) 
['/opt/xchem-fragalysis-2/maxwin/BulkDock/OUTPUTS/RdRp_knitwork_thumb_site_2_impure_split4000_batch001_211014.sdf']

>  <fragmenstein_outcome>  (2) 
['acceptable']

>  <fragmenstein_mode>  (2) 
['expansion']

>  <HIPPO Pose ID>  (2) 
35539

>  <name>  (2) 
FWCZLIJQXPJLIZ-ZETCQYMHSA-N

>  <fragmenstein_runtime>  (2) 
[21.094682216644287]

>  <csv_name>  (2) 
RdRp_knitwork_thumb_site_2_impure_split4000_batch001.csv

>  <inchikey>  (2) 
FWCZLIJQXPJLIZ-ZETCQYMHSA-N

>  <original SMILES>  (2) 
O=S(=O)(NCCCC(F)(F)F)[C@H]1CCNC1

>  <scratch_subdir>  (2) 
['/opt/xchem-fragalysis-2/maxwin/BulkDock/SCRATCH/211014/C1928-P44']

>  <tags>  (2) 
['Fragmenstein placed']

>  <distance_score>  (2) 
0.640009

>  <original ID>  (2) 
FWCZLIJQXPJLIZ-ZETCQYMHSA-N

>  <ref_mols>  (2) 
d0174a,d0503a

>  <SLURM_JOB_ID>  (2) 
211014

>  <ref_pdb>  (2) 
d0503a

$$$$
35982
     RDKit          3D

 20 21  0  0  0  0  0  0  0  0999 V2000
  -14.6855  -69.4381  -22.7780 C   0  0  0  0  0  0  0  0  0  0  0  0
  -15.2184  -69.5907  -21.3684 C   0  0  0  0  0  0  0  0  0  0  0  0
  -13.9351  -69.7814  -20.1390 S   0  0  0  0  0  0  0  0  0  0  0  0
  -13.0448  -68.6488  -20.1971 O   0  0  0  0  0  0  0  0  0  0  0  0
  -14.5475  -70.1813  -18.8864 O   0  0  0  0  0  0  0  0  0  0  0  0
  -13.1176  -71.1352  -20.6653 N   0  0  0  0  0  0  0  0  0  0  0  0
  -11.8594  -70.9676  -21.3969 C   0  0  0  0  0  0  0  0  0  0  0  0
  -10.6340  -71.2049  -20.5481 C   0  0  0  0  0  0  0  0  0  0  0  0
  -10.5720  -70.8041  -19.2056 C   0  0  0  0  0  0  0  0  0  0  0  0
   -9.4026  -70.9678  -18.4659 C   0  0  0  0  0  0  0  0  0  0  0  0
   -8.2669  -71.5082  -19.0691 C   0  0  0  0  0  0  0  0  0  0  0  0
   -7.0122  -71.5162  -18.2831 C   0  0  0  0  0  0  0  0  0  0  0  0
   -7.0655  -71.8949  -17.1159 O   0  0  0  0  0  0  0  0  0  0  0  0
   -5.8803  -71.0131  -18.8832 N   0  0  0  0  0  0  0  0  0  0  0  0
   -5.6776  -70.5506  -20.2143 C   0  0  0  0  0  0  0  0  0  0  0  0
   -4.2326  -70.3786  -19.6377 C   0  0  0  0  0  0  0  0  0  0  0  0
   -3.1920  -69.8882  -20.0036 O   0  0  0  0  0  0  0  0  0  0  0  0
   -4.5991  -70.9808  -18.4402 N   0  0  0  0  0  0  0  0  0  0  0  0
   -8.3348  -71.9720  -20.3826 C   0  0  0  0  0  0  0  0  0  0  0  0
   -9.5018  -71.7944  -21.1254 C   0  0  0  0  0  0  0  0  0  0  0  0
  1  2  1  0
  2  3  1  0
  3  4  2  0
  3  5  2  0
  3  6  1  0
  6  7  1  0
  7  8  1  0
  8  9  2  0
  9 10  1  0
 10 11  2  0
 11 12  1  0
 12 13  2  0
 12 14  1  0
 14 15  1  0
 15 16  1  0
 16 17  2  0
 16 18  1  0
 11 19  1  0
 19 20  2  0
 20  8  1  0
 18 14  1  0
M  END
>  <SLURM_JOB_NAME>  (3) 
BulkDock.place:Flavi_NS5_RdRp:RdRp_knitwork_thumb_site_2_impure_split4000_batch001

>  <fragmenstein_error>  (3) 
['']

>  <HIPPO Compound ID>  (3) 
3098

>  <alias>  (3) 
None

>  <energy_score>  (3) 
-89.018391

>  <exports>  (3) 
['/opt/xchem-fragalysis-2/maxwin/BulkDock/OUTPUTS/RdRp_knitwork_thumb_site_2_impure_split4000_batch001_211014.sdf']

>  <fragmenstein_outcome>  (3) 
['acceptable']

>  <fragmenstein_mode>  (3) 
['expansion']

>  <HIPPO Pose ID>  (3) 
35982

>  <name>  (3) 
KAFGNTYOOWFSHX-UHFFFAOYSA-N

>  <fragmenstein_runtime>  (3) 
[4.798282146453857]

>  <csv_name>  (3) 
RdRp_knitwork_thumb_site_2_impure_split4000_batch001.csv

>  <inchikey>  (3) 
KAFGNTYOOWFSHX-UHFFFAOYSA-N

>  <original SMILES>  (3) 
CCS(=O)(=O)NCc1ccc(C(=O)N2CC(=O)N2)cc1

>  <scratch_subdir>  (3) 
['/opt/xchem-fragalysis-2/maxwin/BulkDock/SCRATCH/211014/C3098-P45']

>  <tags>  (3) 
['Fragmenstein placed']

>  <distance_score>  (3) 
0.972484

>  <original ID>  (3) 
KAFGNTYOOWFSHX-UHFFFAOYSA-N

>  <ref_mols>  (3) 
d0174a,d0566a

>  <SLURM_JOB_ID>  (3) 
211014

>  <ref_pdb>  (3) 
d0566a

$$$$
36027
     RDKit          3D

 19 19  0  0  0  0  0  0  0  0999 V2000
  -12.2694  -70.5350  -22.1168 C   0  0  0  0  0  0  0  0  0  0  0  0
  -11.3284  -71.1510  -21.1043 C   0  0  0  0  0  0  0  0  0  0  0  0
  -11.1909  -72.4733  -21.3708 F   0  0  0  0  0  0  0  0  0  0  0  0
  -10.1015  -70.5946  -21.2459 F   0  0  0  0  0  0  0  0  0  0  0  0
  -11.7980  -70.9753  -19.6686 C   0  0  0  0  0  0  0  0  0  0  0  0
  -10.8592  -71.6227  -18.6228 C   0  0  0  0  0  0  0  0  0  0  0  0
   -9.4396  -71.0291  -18.5554 C   0  0  0  0  0  0  0  0  0  0  0  0
   -8.3542  -71.9229  -19.1682 C   0  0  0  0  0  0  0  0  0  0  0  0
   -7.1902  -71.0803  -19.5289 N   0  0  0  0  0  0  0  0  0  0  0  0
   -5.7612  -71.9300  -19.7747 S   0  0  0  0  0  0  0  0  0  0  0  0
   -5.8705  -72.5884  -21.0525 O   0  0  0  0  0  0  0  0  0  0  0  0
   -5.4413  -72.6476  -18.5650 O   0  0  0  0  0  0  0  0  0  0  0  0
   -4.6809  -70.6411  -19.9320 N   0  0  0  0  0  0  0  0  0  0  0  0
   -4.6514  -69.7287  -18.7641 C   0  0  0  0  0  0  0  0  0  0  0  0
   -3.6514  -68.5879  -18.8902 C   0  0  0  0  0  0  0  0  0  0  0  0
   -3.5093  -67.9946  -20.2852 C   0  0  0  0  0  0  0  0  0  0  0  0
   -2.4917  -68.7395  -21.1454 C   0  0  0  0  0  0  0  0  0  0  0  0
   -2.8957  -70.1557  -21.5489 C   0  0  0  0  0  0  0  0  0  0  0  0
   -3.3272  -71.0526  -20.3927 C   0  0  0  0  0  0  0  0  0  0  0  0
  1  2  1  0
  2  3  1  0
  2  4  1  0
  2  5  1  0
  5  6  1  0
  6  7  1  0
  7  8  1  0
  8  9  1  0
  9 10  1  0
 10 11  2  0
 10 12  2  0
 10 13  1  0
 13 14  1  0
 14 15  1  0
 15 16  1  0
 16 17  1  0
 17 18  1  0
 18 19  1  0
 19 13  1  0
M  END
>  <SLURM_JOB_NAME>  (4) 
BulkDock.place:Flavi_NS5_RdRp:RdRp_knitwork_thumb_site_2_impure_split4000_batch000

>  <fragmenstein_error>  (4) 
['']

>  <HIPPO Compound ID>  (4) 
2209

>  <alias>  (4) 
None

>  <energy_score>  (4) 
-133.004483

>  <exports>  (4) 
['/opt/xchem-fragalysis-2/maxwin/BulkDock/OUTPUTS/RdRp_knitwork_thumb_site_2_impure_split4000_batch000_211013.sdf']

>  <fragmenstein_outcome>  (4) 
['acceptable']

>  <fragmenstein_mode>  (4) 
['expansion']

>  <HIPPO Pose ID>  (4) 
36027

>  <name>  (4) 
JVWNWDJOEIUJSA-UHFFFAOYSA-N

>  <fragmenstein_runtime>  (4) 
[19.987526655197144]

>  <csv_name>  (4) 
RdRp_knitwork_thumb_site_2_impure_split4000_batch000.csv

>  <inchikey>  (4) 
JVWNWDJOEIUJSA-UHFFFAOYSA-N

>  <original SMILES>  (4) 
CC(F)(F)CCCCNS(=O)(=O)N1CCCCCC1

>  <scratch_subdir>  (4) 
['/opt/xchem-fragalysis-2/maxwin/BulkDock/SCRATCH/211013/C2209-P56']

>  <tags>  (4) 
['Fragmenstein placed']

>  <distance_score>  (4) 
0.897458

>  <original ID>  (4) 
JVWNWDJOEIUJSA-UHFFFAOYSA-N

>  <ref_mols>  (4) 
d0174a,d0759a

>  <SLURM_JOB_ID>  (4) 
211013

>  <ref_pdb>  (4) 
d0759a

$$$$
37331
     RDKit          3D

 15 15  0  0  0  0  0  0  0  0999 V2000
  -14.8195  -69.3845  -22.8566 C   0  0  0  0  0  0  0  0  0  0  0  0
  -15.1810  -69.7484  -21.4241 C   0  0  0  0  0  0  0  0  0  0  0  0
  -14.0035  -69.6459  -20.4529 C   0  0  0  0  0  0  0  0  0  0  0  0
  -12.8764  -70.6495  -20.7420 C   0  0  2  0  0  0  0  0  0  0  0  0
  -13.3413  -71.9564  -20.3641 O   0  0  0  0  0  0  0  0  0  0  0  0
  -13.4117  -72.8598  -21.4612 C   0  0  0  0  0  0  0  0  0  0  0  0
  -11.6285  -70.3029  -19.8900 C   0  0  1  0  0  0  0  0  0  0  0  0
  -11.8816  -70.6523  -18.5234 O   0  0  0  0  0  0  0  0  0  0  0  0
  -10.3413  -70.9988  -20.4373 C   0  0  2  0  0  0  0  0  0  0  0  0
  -10.0917  -72.3839  -19.8072 C   0  0  0  0  0  0  0  0  0  0  0  0
   -9.2760  -72.3734  -18.5118 C   0  0  0  0  0  0  0  0  0  0  0  0
   -7.7753  -72.4242  -18.7859 C   0  0  0  0  0  0  0  0  0  0  0  0
   -7.1830  -71.1775  -19.4313 C   0  0  0  0  0  0  0  0  0  0  0  0
   -7.9142  -70.6462  -20.6580 C   0  0  0  0  0  0  0  0  0  0  0  0
   -9.2026  -70.0760  -20.3032 N   0  0  0  0  0  0  0  0  0  0  0  0
  1  2  1  0
  2  3  1  0
  4  3  1  1
  4  5  1  0
  5  6  1  0
  4  7  1  0
  7  8  1  1
  7  9  1  0
  9 10  1  1
 10 11  1  0
 11 12  1  0
 12 13  1  0
 13 14  1  0
 14 15  1  0
 15  9  1  0
M  END
>  <SLURM_JOB_NAME>  (5) 
BulkDock.place:Flavi_NS5_RdRp:RdRp_knitwork_thumb_site_2_impure_split4000_batch000

>  <fragmenstein_error>  (5) 
['']

>  <HIPPO Compound ID>  (5) 
2356

>  <alias>  (5) 
None

>  <energy_score>  (5) 
-181.762189

>  <exports>  (5) 
['/opt/xchem-fragalysis-2/maxwin/BulkDock/OUTPUTS/RdRp_knitwork_thumb_site_2_impure_split4000_batch000_211013.sdf']

>  <fragmenstein_outcome>  (5) 
['acceptable']

>  <fragmenstein_mode>  (5) 
['expansion']

>  <HIPPO Pose ID>  (5) 
37331

>  <name>  (5) 
KGRUSLXSFIJFHH-SRVKXCTJSA-N

>  <fragmenstein_runtime>  (5) 
[2.584609270095825]

>  <csv_name>  (5) 
RdRp_knitwork_thumb_site_2_impure_split4000_batch000.csv

>  <inchikey>  (5) 
KGRUSLXSFIJFHH-SRVKXCTJSA-N

>  <original SMILES>  (5) 
CCC[C@H](OC)[C@@H](O)[C@@H]1CCCCCN1

>  <scratch_subdir>  (5) 
['/opt/xchem-fragalysis-2/maxwin/BulkDock/SCRATCH/211013/C2356-P17']

>  <tags>  (5) 
['Fragmenstein placed']

>  <distance_score>  (5) 
0.935017

>  <original ID>  (5) 
KGRUSLXSFIJFHH-SRVKXCTJSA-N

>  <ref_mols>  (5) 
d0174a,d0759a

>  <SLURM_JOB_ID>  (5) 
211013

>  <ref_pdb>  (5) 
d0174a

$$$$
37335
     RDKit          3D

 15 15  0  0  0  0  0  0  0  0999 V2000
  -14.8741  -69.3410  -22.8516 C   0  0  0  0  0  0  0  0  0  0  0  0
  -15.2353  -69.6545  -21.4061 C   0  0  0  0  0  0  0  0  0  0  0  0
  -14.0426  -69.5647  -20.4482 C   0  0  0  0  0  0  0  0  0  0  0  0
  -12.9365  -70.5991  -20.7235 C   0  0  2  0  0  0  0  0  0  0  0  0
  -13.4123  -71.8836  -20.2884 O   0  0  0  0  0  0  0  0  0  0  0  0
  -13.5519  -72.8165  -21.3531 C   0  0  0  0  0  0  0  0  0  0  0  0
  -11.6624  -70.2455  -19.9104 C   0  0  1  0  0  0  0  0  0  0  0  0
  -11.8836  -70.5607  -18.5312 O   0  0  0  0  0  0  0  0  0  0  0  0
  -10.3916  -70.9629  -20.4707 C   0  0  2  0  0  0  0  0  0  0  0  0
  -10.1456  -72.3410  -19.8219 C   0  0  0  0  0  0  0  0  0  0  0  0
   -9.3020  -72.3179  -18.5441 C   0  0  0  0  0  0  0  0  0  0  0  0
   -7.8079  -72.3957  -18.8478 C   0  0  0  0  0  0  0  0  0  0  0  0
   -7.2106  -71.1746  -19.5372 C   0  0  0  0  0  0  0  0  0  0  0  0
   -7.9661  -70.6552  -20.7544 C   0  0  0  0  0  0  0  0  0  0  0  0
   -9.2345  -70.0554  -20.3754 N   0  0  0  0  0  0  0  0  0  0  0  0
  1  2  1  0
  2  3  1  0
  4  3  1  1
  4  5  1  0
  5  6  1  0
  4  7  1  0
  7  8  1  1
  7  9  1  0
  9 10  1  1
 10 11  1  0
 11 12  1  0
 12 13  1  0
 13 14  1  0
 14 15  1  0
 15  9  1  0
M  END
>  <SLURM_JOB_NAME>  (6) 
BulkDock.place:Flavi_NS5_RdRp:RdRp_knitwork_thumb_site_2_impure_split4000_batch000

>  <fragmenstein_error>  (6) 
['']

>  <HIPPO Compound ID>  (6) 
2356

>  <alias>  (6) 
None

>  <energy_score>  (6) 
-181.634361

>  <exports>  (6) 
['/opt/xchem-fragalysis-2/maxwin/BulkDock/OUTPUTS/RdRp_knitwork_thumb_site_2_impure_split4000_batch000_211013.sdf']

>  <fragmenstein_outcome>  (6) 
['acceptable']

>  <fragmenstein_mode>  (6) 
['expansion']

>  <HIPPO Pose ID>  (6) 
37335

>  <name>  (6) 
KGRUSLXSFIJFHH-SRVKXCTJSA-N

>  <fragmenstein_runtime>  (6) 
[2.923710823059082]

>  <csv_name>  (6) 
RdRp_knitwork_thumb_site_2_impure_split4000_batch000.csv

>  <inchikey>  (6) 
KGRUSLXSFIJFHH-SRVKXCTJSA-N

>  <original SMILES>  (6) 
CCC[C@H](OC)[C@@H](O)[C@@H]1CCCCCN1

>  <scratch_subdir>  (6) 
['/opt/xchem-fragalysis-2/maxwin/BulkDock/SCRATCH/211013/C2356-P56']

>  <tags>  (6) 
['Fragmenstein placed']

>  <distance_score>  (6) 
0.919497

>  <original ID>  (6) 
KGRUSLXSFIJFHH-SRVKXCTJSA-N

>  <ref_mols>  (6) 
d0174a,d0759a

>  <SLURM_JOB_ID>  (6) 
211013

>  <ref_pdb>  (6) 
d0759a

$$$$
37946
     RDKit          3D

 20 22  0  0  0  0  0  0  0  0999 V2000
   -2.3413  -72.0513  -23.2275 N   0  0  0  0  0  0  0  0  0  0  0  0
   -1.9107  -70.8699  -22.4838 C   0  0  0  0  0  0  0  0  0  0  0  0
   -3.0305  -70.2109  -21.6512 C   0  0  2  0  0  0  0  0  0  0  0  0
   -2.5437  -68.8262  -21.1787 C   0  0  0  0  0  0  0  0  0  0  0  0
   -3.5119  -68.0498  -20.2893 C   0  0  0  0  0  0  0  0  0  0  0  0
   -3.6810  -68.6824  -18.9163 C   0  0  0  0  0  0  0  0  0  0  0  0
   -4.7340  -69.7869  -18.8518 C   0  0  0  0  0  0  0  0  0  0  0  0
   -4.8195  -70.6818  -20.0086 N   0  0  0  0  0  0  0  0  0  0  0  0
   -5.6808  -71.8382  -19.7265 C   0  0  0  0  0  0  0  0  0  0  0  0
   -7.1256  -71.4979  -19.4285 C   0  0  0  0  0  0  0  0  0  0  0  0
   -7.7038  -71.8619  -18.2032 C   0  0  0  0  0  0  0  0  0  0  0  0
   -9.0641  -71.6484  -17.9714 C   0  0  0  0  0  0  0  0  0  0  0  0
   -9.8589  -71.0881  -18.9690 C   0  0  0  0  0  0  0  0  0  0  0  0
   -9.2911  -70.7198  -20.1910 C   0  0  0  0  0  0  0  0  0  0  0  0
   -7.9275  -70.8905  -20.4053 C   0  0  0  0  0  0  0  0  0  0  0  0
  -10.0218  -70.2187  -21.2379 O   0  0  0  0  0  0  0  0  0  0  0  0
  -11.3984  -70.5807  -21.1007 C   0  0  0  0  0  0  0  0  0  0  0  0
  -11.8907  -70.2360  -19.7071 C   0  0  0  0  0  0  0  0  0  0  0  0
  -11.1953  -70.9678  -18.6926 O   0  0  0  0  0  0  0  0  0  0  0  0
   -3.5065  -71.1202  -20.5028 C   0  0  0  0  0  0  0  0  0  0  0  0
  1  2  1  0
  3  2  1  1
  3  4  1  0
  4  5  1  0
  5  6  1  0
  6  7  1  0
  7  8  1  0
  8  9  1  0
  9 10  1  0
 10 11  2  0
 11 12  1  0
 12 13  2  0
 13 14  1  0
 14 15  2  0
 14 16  1  0
 16 17  1  0
 17 18  1  0
 18 19  1  0
  8 20  1  0
 20  3  1  0
 15 10  1  0
 19 13  1  0
M  END
>  <SLURM_JOB_NAME>  (7) 
BulkDock.place:Flavi_NS5_RdRp:RdRp_knitwork_thumb_site_2_impure_split4000_batch000

>  <fragmenstein_error>  (7) 
['']

>  <HIPPO Compound ID>  (7) 
3702

>  <alias>  (7) 
None

>  <energy_score>  (7) 
-54.622078

>  <exports>  (7) 
['/opt/xchem-fragalysis-2/maxwin/BulkDock/OUTPUTS/RdRp_knitwork_thumb_site_2_impure_split4000_batch000_211013.sdf']

>  <fragmenstein_outcome>  (7) 
['acceptable']

>  <fragmenstein_mode>  (7) 
['expansion']

>  <HIPPO Pose ID>  (7) 
37946

>  <name>  (7) 
ZBIIEUSJIXFFMC-AWEZNQCLSA-N

>  <fragmenstein_runtime>  (7) 
[2.871062755584717]

>  <csv_name>  (7) 
RdRp_knitwork_thumb_site_2_impure_split4000_batch000.csv

>  <inchikey>  (7) 
ZBIIEUSJIXFFMC-AWEZNQCLSA-N

>  <original SMILES>  (7) 
NC[C@@H]1CCCCN(Cc2ccc3c(c2)OCCO3)C1

>  <scratch_subdir>  (7) 
['/opt/xchem-fragalysis-2/maxwin/BulkDock/SCRATCH/211013/C3702-P56']

>  <tags>  (7) 
['Fragmenstein placed']

>  <distance_score>  (7) 
0.877225

>  <original ID>  (7) 
ZBIIEUSJIXFFMC-AWEZNQCLSA-N

>  <ref_mols>  (7) 
d0174a,d0759a

>  <SLURM_JOB_ID>  (7) 
211013

>  <ref_pdb>  (7) 
d0759a

$$$$
38001
     RDKit          3D

 19 21  0  0  0  0  0  0  0  0999 V2000
   -1.6914  -70.5162  -22.1925 O   0  0  0  0  0  0  0  0  0  0  0  0
   -2.8605  -69.9567  -21.5708 C   0  0  2  0  0  0  0  0  0  0  0  0
   -2.4800  -68.5857  -21.0144 C   0  0  0  0  0  0  0  0  0  0  0  0
   -3.5444  -67.9147  -20.1607 C   0  0  0  0  0  0  0  0  0  0  0  0
   -3.7307  -68.6321  -18.8330 C   0  0  0  0  0  0  0  0  0  0  0  0
   -4.7514  -69.7647  -18.8718 C   0  0  0  0  0  0  0  0  0  0  0  0
   -4.7882  -70.5786  -20.0960 N   0  0  0  0  0  0  0  0  0  0  0  0
   -5.6374  -71.7680  -19.8719 C   0  0  0  0  0  0  0  0  0  0  0  0
   -7.0968  -71.4656  -19.5487 C   0  0  0  0  0  0  0  0  0  0  0  0
   -7.9157  -70.8805  -20.5101 C   0  0  0  0  0  0  0  0  0  0  0  0
   -9.2701  -70.7434  -20.2456 C   0  0  0  0  0  0  0  0  0  0  0  0
   -9.7772  -71.1277  -19.0105 C   0  0  0  0  0  0  0  0  0  0  0  0
   -8.8900  -71.6601  -18.0913 C   0  0  0  0  0  0  0  0  0  0  0  0
   -7.5663  -71.8339  -18.3259 N   0  0  0  0  0  0  0  0  0  0  0  0
  -11.0968  -71.0396  -18.6700 O   0  0  0  0  0  0  0  0  0  0  0  0
  -11.8503  -70.3038  -19.6412 C   0  0  0  0  0  0  0  0  0  0  0  0
  -11.4201  -70.6238  -21.0622 C   0  0  0  0  0  0  0  0  0  0  0  0
  -10.0523  -70.2526  -21.2597 O   0  0  0  0  0  0  0  0  0  0  0  0
   -3.4425  -70.9665  -20.5573 C   0  0  0  0  0  0  0  0  0  0  0  0
  2  1  1  1
  2  3  1  0
  3  4  1  0
  4  5  1  0
  5  6  1  0
  6  7  1  0
  7  8  1  0
  8  9  1  0
  9 10  2  0
 10 11  1  0
 11 12  2  0
 12 13  1  0
 13 14  2  0
 12 15  1  0
 15 16  1  0
 16 17  1  0
 17 18  1  0
  7 19  1  0
 19  2  1  0
 14  9  1  0
 18 11  1  0
M  END
>  <SLURM_JOB_NAME>  (8) 
BulkDock.place:Flavi_NS5_RdRp:RdRp_knitwork_thumb_site_2_impure_split4000_batch000

>  <fragmenstein_error>  (8) 
['']

>  <HIPPO Compound ID>  (8) 
3821

>  <alias>  (8) 
None

>  <energy_score>  (8) 
-43.161236

>  <exports>  (8) 
['/opt/xchem-fragalysis-2/maxwin/BulkDock/OUTPUTS/RdRp_knitwork_thumb_site_2_impure_split4000_batch000_211013.sdf']

>  <fragmenstein_outcome>  (8) 
['acceptable']

>  <fragmenstein_mode>  (8) 
['expansion']

>  <HIPPO Pose ID>  (8) 
38001

>  <name>  (8) 
LTCGXJGRROKXQY-GFCCVEGCSA-N

>  <fragmenstein_runtime>  (8) 
[3.345991849899292]

>  <csv_name>  (8) 
RdRp_knitwork_thumb_site_2_impure_split4000_batch000.csv

>  <inchikey>  (8) 
LTCGXJGRROKXQY-GFCCVEGCSA-N

>  <original SMILES>  (8) 
O[C@@H]1CCCCN(Cc2cc3c(cn2)OCCO3)C1

>  <scratch_subdir>  (8) 
['/opt/xchem-fragalysis-2/maxwin/BulkDock/SCRATCH/211013/C3821-P56']

>  <tags>  (8) 
['Fragmenstein placed']

>  <distance_score>  (8) 
0.982855

>  <original ID>  (8) 
LTCGXJGRROKXQY-GFCCVEGCSA-N

>  <ref_mols>  (8) 
d0174a,d0759a

>  <SLURM_JOB_ID>  (8) 
211013

>  <ref_pdb>  (8) 
d0759a

$$$$
39075
     RDKit          3D

 18 19  0  0  0  0  0  0  0  0999 V2000
  -11.7345  -69.6384  -18.7765 O   0  0  0  0  0  0  0  0  0  0  0  0
  -11.5376  -70.3846  -19.7267 C   0  0  0  0  0  0  0  0  0  0  0  0
  -12.5547  -70.6165  -20.7616 C   0  0  0  0  0  0  0  0  0  0  0  0
  -13.5983  -69.7658  -20.8507 C   0  0  0  0  0  0  0  0  0  0  0  0
  -13.7038  -68.6301  -20.0434 O   0  0  0  0  0  0  0  0  0  0  0  0
  -14.7245  -69.9785  -21.8386 C   0  0  0  0  0  0  0  0  0  0  0  0
  -14.6361  -69.1341  -22.8950 F   0  0  0  0  0  0  0  0  0  0  0  0
  -14.7028  -71.2383  -22.3581 F   0  0  0  0  0  0  0  0  0  0  0  0
  -15.9480  -69.8141  -21.2798 F   0  0  0  0  0  0  0  0  0  0  0  0
  -10.2625  -71.0784  -19.7543 C   0  0  0  0  0  0  0  0  0  0  0  0
  -10.1178  -72.1690  -18.8734 C   0  0  0  0  0  0  0  0  0  0  0  0
   -8.8466  -72.6451  -18.5611 C   0  0  0  0  0  0  0  0  0  0  0  0
   -7.7699  -71.9990  -19.1290 C   0  0  0  0  0  0  0  0  0  0  0  0
   -7.9230  -70.9457  -20.0033 C   0  0  0  0  0  0  0  0  0  0  0  0
   -9.1621  -70.4557  -20.3464 C   0  0  0  0  0  0  0  0  0  0  0  0
   -6.7304  -70.4271  -20.3915 O   0  0  0  0  0  0  0  0  0  0  0  0
   -5.8081  -71.3189  -19.7348 C   0  0  0  0  0  0  0  0  0  0  0  0
   -6.4633  -72.2712  -18.8698 O   0  0  0  0  0  0  0  0  0  0  0  0
  1  2  2  0
  2  3  1  0
  3  4  2  3
  4  5  1  0
  4  6  1  0
  6  7  1  0
  6  8  1  0
  6  9  1  0
  2 10  1  0
 10 11  2  0
 11 12  1  0
 12 13  2  0
 13 14  1  0
 14 15  2  0
 14 16  1  0
 16 17  1  0
 17 18  1  0
 15 10  1  0
 18 13  1  0
M  END
>  <SLURM_JOB_NAME>  (9) 
BulkDock.place:Flavi_NS5_RdRp:RdRp_knitwork_thumb_site_2_impure_split4000_batch000

>  <fragmenstein_error>  (9) 
['']

>  <HIPPO Compound ID>  (9) 
4914

>  <alias>  (9) 
None

>  <energy_score>  (9) 
-50.756189

>  <exports>  (9) 
['/opt/xchem-fragalysis-2/maxwin/BulkDock/OUTPUTS/RdRp_knitwork_thumb_site_2_impure_split4000_batch000_211013.sdf']

>  <fragmenstein_outcome>  (9) 
['acceptable']

>  <fragmenstein_mode>  (9) 
['expansion']

>  <HIPPO Pose ID>  (9) 
39075

>  <name>  (9) 
ABHHLCJTZGOUII-UHFFFAOYSA-N

>  <fragmenstein_runtime>  (9) 
[3.8928887844085693]

>  <csv_name>  (9) 
RdRp_knitwork_thumb_site_2_impure_split4000_batch000.csv

>  <inchikey>  (9) 
ABHHLCJTZGOUII-UHFFFAOYSA-N

>  <original SMILES>  (9) 
O=C(C=C(O)C(F)(F)F)c1ccc2c(c1)OCO2

>  <scratch_subdir>  (9) 
['/opt/xchem-fragalysis-2/maxwin/BulkDock/SCRATCH/211013/C4914-P17']

>  <tags>  (9) 
['Fragmenstein placed']

>  <distance_score>  (9) 
0.922031

>  <original ID>  (9) 
ABHHLCJTZGOUII-UHFFFAOYSA-N

>  <ref_mols>  (9) 
d0174a,d0759a

>  <SLURM_JOB_ID>  (9) 
211013

>  <ref_pdb>  (9) 
d0174a

$$$$
39078
     RDKit          3D

 18 19  0  0  0  0  0  0  0  0999 V2000
  -11.7471  -69.6603  -18.7616 O   0  0  0  0  0  0  0  0  0  0  0  0
  -11.5375  -70.3843  -19.7267 C   0  0  0  0  0  0  0  0  0  0  0  0
  -12.5478  -70.5994  -20.7727 C   0  0  0  0  0  0  0  0  0  0  0  0
  -13.5914  -69.7473  -20.8510 C   0  0  0  0  0  0  0  0  0  0  0  0
  -13.6946  -68.6229  -20.0272 O   0  0  0  0  0  0  0  0  0  0  0  0
  -14.7209  -69.9464  -21.8387 C   0  0  0  0  0  0  0  0  0  0  0  0
  -14.6079  -69.1188  -22.9059 F   0  0  0  0  0  0  0  0  0  0  0  0
  -14.7288  -71.2136  -22.3390 F   0  0  0  0  0  0  0  0  0  0  0  0
  -15.9417  -69.7430  -21.2859 F   0  0  0  0  0  0  0  0  0  0  0  0
  -10.2581  -71.0698  -19.7578 C   0  0  0  0  0  0  0  0  0  0  0  0
  -10.0967  -72.1368  -18.8502 C   0  0  0  0  0  0  0  0  0  0  0  0
   -8.8206  -72.6029  -18.5447 C   0  0  0  0  0  0  0  0  0  0  0  0
   -7.7547  -71.9704  -19.1465 C   0  0  0  0  0  0  0  0  0  0  0  0
   -7.9239  -70.9421  -20.0476 C   0  0  0  0  0  0  0  0  0  0  0  0
   -9.1689  -70.4611  -20.3836 C   0  0  0  0  0  0  0  0  0  0  0  0
   -6.7390  -70.4373  -20.4742 O   0  0  0  0  0  0  0  0  0  0  0  0
   -5.8030  -71.2835  -19.7786 C   0  0  0  0  0  0  0  0  0  0  0  0
   -6.4439  -72.2337  -18.8998 O   0  0  0  0  0  0  0  0  0  0  0  0
  1  2  2  0
  2  3  1  0
  3  4  2  3
  4  5  1  0
  4  6  1  0
  6  7  1  0
  6  8  1  0
  6  9  1  0
  2 10  1  0
 10 11  2  0
 11 12  1  0
 12 13  2  0
 13 14  1  0
 14 15  2  0
 14 16  1  0
 16 17  1  0
 17 18  1  0
 15 10  1  0
 18 13  1  0
M  END
>  <SLURM_JOB_NAME>  (10) 
BulkDock.place:Flavi_NS5_RdRp:RdRp_knitwork_thumb_site_2_impure_split4000_batch000

>  <fragmenstein_error>  (10) 
['']

>  <HIPPO Compound ID>  (10) 
4914

>  <alias>  (10) 
None

>  <energy_score>  (10) 
-50.597868

>  <exports>  (10) 
['/opt/xchem-fragalysis-2/maxwin/BulkDock/OUTPUTS/RdRp_knitwork_thumb_site_2_impure_split4000_batch000_211013.sdf']

>  <fragmenstein_outcome>  (10) 
['acceptable']

>  <fragmenstein_mode>  (10) 
['expansion']

>  <HIPPO Pose ID>  (10) 
39078

>  <name>  (10) 
ABHHLCJTZGOUII-UHFFFAOYSA-N

>  <fragmenstein_runtime>  (10) 
[3.5901787281036377]

>  <csv_name>  (10) 
RdRp_knitwork_thumb_site_2_impure_split4000_batch000.csv

>  <inchikey>  (10) 
ABHHLCJTZGOUII-UHFFFAOYSA-N

>  <original SMILES>  (10) 
O=C(C=C(O)C(F)(F)F)c1ccc2c(c1)OCO2

>  <scratch_subdir>  (10) 
['/opt/xchem-fragalysis-2/maxwin/BulkDock/SCRATCH/211013/C4914-P56']

>  <tags>  (10) 
['Fragmenstein placed']

>  <distance_score>  (10) 
0.92185

>  <original ID>  (10) 
ABHHLCJTZGOUII-UHFFFAOYSA-N

>  <ref_mols>  (10) 
d0174a,d0759a

>  <SLURM_JOB_ID>  (10) 
211013

>  <ref_pdb>  (10) 
d0759a

$$$$
39716
     RDKit          3D

 18 19  0  0  0  0  0  0  0  0999 V2000
   -2.4832  -68.1317  -21.6208 C   0  0  0  0  0  0  0  0  0  0  0  0
   -2.7673  -69.5520  -21.6665 N   0  0  0  0  0  0  0  0  0  0  0  0
   -1.9246  -70.3261  -22.5695 C   0  0  0  0  0  0  0  0  0  0  0  0
   -3.6595  -70.0970  -20.7347 C   0  0  0  0  0  0  0  0  0  0  0  0
   -4.2956  -69.4118  -19.9380 O   0  0  0  0  0  0  0  0  0  0  0  0
   -3.7934  -71.5842  -20.7918 C   0  0  0  0  0  0  0  0  0  0  0  0
   -4.6226  -72.2545  -19.4019 S   0  0  0  0  0  0  0  0  0  0  0  0
   -4.7409  -73.6902  -19.5982 O   0  0  0  0  0  0  0  0  0  0  0  0
   -4.0947  -71.7486  -18.1488 O   0  0  0  0  0  0  0  0  0  0  0  0
   -6.2813  -71.6944  -19.4732 C   0  0  0  0  0  0  0  0  0  0  0  0
   -6.8855  -71.1317  -20.5025 N   0  0  0  0  0  0  0  0  0  0  0  0
   -8.2027  -71.0362  -20.1363 C   0  0  0  0  0  0  0  0  0  0  0  0
   -9.2969  -70.5528  -20.8648 C   0  0  0  0  0  0  0  0  0  0  0  0
  -10.5678  -70.6187  -20.2816 C   0  0  0  0  0  0  0  0  0  0  0  0
  -10.7417  -71.1417  -18.9970 C   0  0  0  0  0  0  0  0  0  0  0  0
   -9.6581  -71.6129  -18.2472 C   0  0  0  0  0  0  0  0  0  0  0  0
   -8.4049  -71.5412  -18.8551 C   0  0  0  0  0  0  0  0  0  0  0  0
   -7.1566  -71.9240  -18.4451 N   0  0  0  0  0  0  0  0  0  0  0  0
  1  2  1  0
  2  3  1  0
  2  4  1  0
  4  5  2  0
  4  6  1  0
  6  7  1  0
  7  8  2  0
  7  9  2  0
  7 10  1  0
 10 11  2  0
 11 12  1  0
 12 13  2  0
 13 14  1  0
 14 15  2  0
 15 16  1  0
 16 17  2  0
 17 18  1  0
 18 10  1  0
 17 12  1  0
M  END
>  <SLURM_JOB_NAME>  (11) 
BulkDock.place:Flavi_NS5_RdRp:RdRp_knitwork_thumb_site_2_impure_split4000_batch000

>  <fragmenstein_error>  (11) 
['']

>  <HIPPO Compound ID>  (11) 
6397

>  <alias>  (11) 
None

>  <energy_score>  (11) 
-33.320438

>  <exports>  (11) 
['/opt/xchem-fragalysis-2/maxwin/BulkDock/OUTPUTS/RdRp_knitwork_thumb_site_2_impure_split4000_batch000_211013.sdf']

>  <fragmenstein_outcome>  (11) 
['acceptable']

>  <fragmenstein_mode>  (11) 
['expansion']

>  <HIPPO Pose ID>  (11) 
39716

>  <name>  (11) 
CATRLDRQOMTICH-UHFFFAOYSA-N

>  <fragmenstein_runtime>  (11) 
[5.364166736602783]

>  <csv_name>  (11) 
RdRp_knitwork_thumb_site_2_impure_split4000_batch000.csv

>  <inchikey>  (11) 
CATRLDRQOMTICH-UHFFFAOYSA-N

>  <original SMILES>  (11) 
CN(C)C(=O)CS(=O)(=O)c1nc2ccccc2[nH]1

>  <scratch_subdir>  (11) 
['/opt/xchem-fragalysis-2/maxwin/BulkDock/SCRATCH/211013/C6397-P17']

>  <tags>  (11) 
['Fragmenstein placed']

>  <distance_score>  (11) 
0.684552

>  <original ID>  (11) 
CATRLDRQOMTICH-UHFFFAOYSA-N

>  <ref_mols>  (11) 
d0174a,d0693a

>  <SLURM_JOB_ID>  (11) 
211013

>  <ref_pdb>  (11) 
d0174a

$$$$
39733
     RDKit          3D

 18 19  0  0  0  0  0  0  0  0999 V2000
   -2.5385  -67.8199  -21.0290 C   0  0  0  0  0  0  0  0  0  0  0  0
   -2.8374  -69.2087  -21.3277 N   0  0  0  0  0  0  0  0  0  0  0  0
   -2.0544  -69.8180  -22.3885 C   0  0  0  0  0  0  0  0  0  0  0  0
   -3.6904  -69.9172  -20.4756 C   0  0  0  0  0  0  0  0  0  0  0  0
   -4.2938  -69.3870  -19.5461 O   0  0  0  0  0  0  0  0  0  0  0  0
   -3.8362  -71.3682  -20.8094 C   0  0  0  0  0  0  0  0  0  0  0  0
   -4.6651  -72.2792  -19.5653 S   0  0  0  0  0  0  0  0  0  0  0  0
   -4.7951  -73.6525  -20.0241 O   0  0  0  0  0  0  0  0  0  0  0  0
   -4.1432  -72.0142  -18.2380 O   0  0  0  0  0  0  0  0  0  0  0  0
   -6.3133  -71.6851  -19.5539 C   0  0  0  0  0  0  0  0  0  0  0  0
   -6.9447  -71.0998  -20.5553 N   0  0  0  0  0  0  0  0  0  0  0  0
   -8.2529  -71.0252  -20.1517 C   0  0  0  0  0  0  0  0  0  0  0  0
   -9.3736  -70.5518  -20.8460 C   0  0  0  0  0  0  0  0  0  0  0  0
  -10.6283  -70.6493  -20.2346 C   0  0  0  0  0  0  0  0  0  0  0  0
  -10.7611  -71.1973  -18.9561 C   0  0  0  0  0  0  0  0  0  0  0  0
   -9.6512  -71.6515  -18.2355 C   0  0  0  0  0  0  0  0  0  0  0  0
   -8.4146  -71.5478  -18.8715 C   0  0  0  0  0  0  0  0  0  0  0  0
   -7.1506  -71.9127  -18.4955 N   0  0  0  0  0  0  0  0  0  0  0  0
  1  2  1  0
  2  3  1  0
  2  4  1  0
  4  5  2  0
  4  6  1  0
  6  7  1  0
  7  8  2  0
  7  9  2  0
  7 10  1  0
 10 11  2  0
 11 12  1  0
 12 13  2  0
 13 14  1  0
 14 15  2  0
 15 16  1  0
 16 17  2  0
 17 18  1  0
 18 10  1  0
 17 12  1  0
M  END
>  <SLURM_JOB_NAME>  (12) 
BulkDock.place:Flavi_NS5_RdRp:RdRp_knitwork_thumb_site_2_impure_split4000_batch000

>  <fragmenstein_error>  (12) 
['']

>  <HIPPO Compound ID>  (12) 
6397

>  <alias>  (12) 
None

>  <energy_score>  (12) 
-33.75871

>  <exports>  (12) 
['/opt/xchem-fragalysis-2/maxwin/BulkDock/OUTPUTS/RdRp_knitwork_thumb_site_2_impure_split4000_batch000_211013.sdf']

>  <fragmenstein_outcome>  (12) 
['acceptable']

>  <fragmenstein_mode>  (12) 
['expansion']

>  <HIPPO Pose ID>  (12) 
39733

>  <name>  (12) 
CATRLDRQOMTICH-UHFFFAOYSA-N

>  <fragmenstein_runtime>  (12) 
[8.214013576507568]

>  <csv_name>  (12) 
RdRp_knitwork_thumb_site_2_impure_split4000_batch000.csv

>  <inchikey>  (12) 
CATRLDRQOMTICH-UHFFFAOYSA-N

>  <original SMILES>  (12) 
CN(C)C(=O)CS(=O)(=O)c1nc2ccccc2[nH]1

>  <scratch_subdir>  (12) 
['/opt/xchem-fragalysis-2/maxwin/BulkDock/SCRATCH/211013/C6397-P53']

>  <tags>  (12) 
['Fragmenstein placed']

>  <distance_score>  (12) 
0.643269

>  <original ID>  (12) 
CATRLDRQOMTICH-UHFFFAOYSA-N

>  <ref_mols>  (12) 
d0174a,d0693a

>  <SLURM_JOB_ID>  (12) 
211013

>  <ref_pdb>  (12) 
d0693a

$$$$
39799
     RDKit          3D

 16 17  0  0  0  0  0  0  0  0999 V2000
   -2.4851  -68.2722  -21.5099 C   0  0  0  0  0  0  0  0  0  0  0  0
   -2.9971  -69.5936  -21.6825 O   0  0  0  0  0  0  0  0  0  0  0  0
   -3.6462  -70.1135  -20.6028 C   0  0  0  0  0  0  0  0  0  0  0  0
   -3.8884  -69.5362  -19.5537 O   0  0  0  0  0  0  0  0  0  0  0  0
   -3.9447  -71.5597  -20.8653 C   0  0  0  0  0  0  0  0  0  0  0  0
   -4.7242  -72.1651  -19.7095 C   0  0  2  0  0  0  0  0  0  0  0  0
   -4.7618  -73.5897  -19.8625 O   0  0  0  0  0  0  0  0  0  0  0  0
   -6.1507  -71.7275  -19.6433 C   0  0  0  0  0  0  0  0  0  0  0  0
   -6.8254  -71.0625  -20.5572 N   0  0  0  0  0  0  0  0  0  0  0  0
   -8.1218  -71.0341  -20.1155 C   0  0  0  0  0  0  0  0  0  0  0  0
   -9.2612  -70.4986  -20.7297 C   0  0  0  0  0  0  0  0  0  0  0  0
  -10.4962  -70.6462  -20.0881 C   0  0  0  0  0  0  0  0  0  0  0  0
  -10.5899  -71.3005  -18.8563 C   0  0  0  0  0  0  0  0  0  0  0  0
   -9.4591  -71.8296  -18.2217 C   0  0  0  0  0  0  0  0  0  0  0  0
   -8.2422  -71.6756  -18.8877 C   0  0  0  0  0  0  0  0  0  0  0  0
   -6.9665  -72.0853  -18.5963 N   0  0  0  0  0  0  0  0  0  0  0  0
  1  2  1  0
  2  3  1  0
  3  4  2  0
  3  5  1  0
  5  6  1  0
  6  7  1  6
  6  8  1  0
  8  9  2  0
  9 10  1  0
 10 11  2  0
 11 12  1  0
 12 13  2  0
 13 14  1  0
 14 15  2  0
 15 16  1  0
 16  8  1  0
 15 10  1  0
M  END
>  <SLURM_JOB_NAME>  (13) 
BulkDock.place:Flavi_NS5_RdRp:RdRp_knitwork_thumb_site_2_impure_split4000_batch000

>  <fragmenstein_error>  (13) 
['']

>  <HIPPO Compound ID>  (13) 
6717

>  <alias>  (13) 
None

>  <energy_score>  (13) 
-152.783905

>  <exports>  (13) 
['/opt/xchem-fragalysis-2/maxwin/BulkDock/OUTPUTS/RdRp_knitwork_thumb_site_2_impure_split4000_batch000_211013.sdf']

>  <fragmenstein_outcome>  (13) 
['acceptable']

>  <fragmenstein_mode>  (13) 
['expansion']

>  <HIPPO Pose ID>  (13) 
39799

>  <name>  (13) 
LJVTWVWWHKILKL-VIFPVBQESA-N

>  <fragmenstein_runtime>  (13) 
[7.721164226531982]

>  <csv_name>  (13) 
RdRp_knitwork_thumb_site_2_impure_split4000_batch000.csv

>  <inchikey>  (13) 
LJVTWVWWHKILKL-VIFPVBQESA-N

>  <original SMILES>  (13) 
COC(=O)C[C@H](O)c1nc2ccccc2[nH]1

>  <scratch_subdir>  (13) 
['/opt/xchem-fragalysis-2/maxwin/BulkDock/SCRATCH/211013/C6717-P17']

>  <tags>  (13) 
['Fragmenstein placed']

>  <distance_score>  (13) 
0.673812

>  <original ID>  (13) 
LJVTWVWWHKILKL-VIFPVBQESA-N

>  <ref_mols>  (13) 
d0174a,d0693a

>  <SLURM_JOB_ID>  (13) 
211013

>  <ref_pdb>  (13) 
d0174a

$$$$
39806
     RDKit          3D

 16 17  0  0  0  0  0  0  0  0999 V2000
   -2.4082  -67.8804  -21.0587 C   0  0  0  0  0  0  0  0  0  0  0  0
   -2.8669  -69.1992  -21.3631 O   0  0  0  0  0  0  0  0  0  0  0  0
   -3.6372  -69.7829  -20.4012 C   0  0  0  0  0  0  0  0  0  0  0  0
   -4.0239  -69.2595  -19.3665 O   0  0  0  0  0  0  0  0  0  0  0  0
   -3.8857  -71.2128  -20.7895 C   0  0  0  0  0  0  0  0  0  0  0  0
   -4.6715  -71.9419  -19.7148 C   0  0  2  0  0  0  0  0  0  0  0  0
   -4.6264  -73.3506  -19.9722 O   0  0  0  0  0  0  0  0  0  0  0  0
   -6.1210  -71.5856  -19.6811 C   0  0  0  0  0  0  0  0  0  0  0  0
   -6.8333  -71.0438  -20.6480 N   0  0  0  0  0  0  0  0  0  0  0  0
   -8.1266  -71.0292  -20.1891 C   0  0  0  0  0  0  0  0  0  0  0  0
   -9.2950  -70.5823  -20.8208 C   0  0  0  0  0  0  0  0  0  0  0  0
  -10.5147  -70.7198  -20.1485 C   0  0  0  0  0  0  0  0  0  0  0  0
  -10.5680  -71.2879  -18.8730 C   0  0  0  0  0  0  0  0  0  0  0  0
   -9.4103  -71.7280  -18.2202 C   0  0  0  0  0  0  0  0  0  0  0  0
   -8.2083  -71.5779  -18.9139 C   0  0  0  0  0  0  0  0  0  0  0  0
   -6.9139  -71.9047  -18.6051 N   0  0  0  0  0  0  0  0  0  0  0  0
  1  2  1  0
  2  3  1  0
  3  4  2  0
  3  5  1  0
  5  6  1  0
  6  7  1  6
  6  8  1  0
  8  9  2  0
  9 10  1  0
 10 11  2  0
 11 12  1  0
 12 13  2  0
 13 14  1  0
 14 15  2  0
 15 16  1  0
 16  8  1  0
 15 10  1  0
M  END
>  <SLURM_JOB_NAME>  (14) 
BulkDock.place:Flavi_NS5_RdRp:RdRp_knitwork_thumb_site_2_impure_split4000_batch000

>  <fragmenstein_error>  (14) 
['']

>  <HIPPO Compound ID>  (14) 
6717

>  <alias>  (14) 
None

>  <energy_score>  (14) 
-153.187529

>  <exports>  (14) 
['/opt/xchem-fragalysis-2/maxwin/BulkDock/OUTPUTS/RdRp_knitwork_thumb_site_2_impure_split4000_batch000_211013.sdf']

>  <fragmenstein_outcome>  (14) 
['acceptable']

>  <fragmenstein_mode>  (14) 
['expansion']

>  <HIPPO Pose ID>  (14) 
39806

>  <name>  (14) 
LJVTWVWWHKILKL-VIFPVBQESA-N

>  <fragmenstein_runtime>  (14) 
[7.879533767700195]

>  <csv_name>  (14) 
RdRp_knitwork_thumb_site_2_impure_split4000_batch000.csv

>  <inchikey>  (14) 
LJVTWVWWHKILKL-VIFPVBQESA-N

>  <original SMILES>  (14) 
COC(=O)C[C@H](O)c1nc2ccccc2[nH]1

>  <scratch_subdir>  (14) 
['/opt/xchem-fragalysis-2/maxwin/BulkDock/SCRATCH/211013/C6717-P53']

>  <tags>  (14) 
['Fragmenstein placed']

>  <distance_score>  (14) 
0.59606

>  <original ID>  (14) 
LJVTWVWWHKILKL-VIFPVBQESA-N

>  <ref_mols>  (14) 
d0174a,d0693a

>  <SLURM_JOB_ID>  (14) 
211013

>  <ref_pdb>  (14) 
d0693a

$$$$
39925
     RDKit          3D

 15 16  0  0  0  0  0  0  0  0999 V2000
  -14.2725  -69.4774  -21.9480 C   0  0  0  0  0  0  0  0  0  0  0  0
  -14.1319  -69.6489  -20.5324 O   0  0  0  0  0  0  0  0  0  0  0  0
  -13.1604  -70.4298  -19.9910 C   0  0  0  0  0  0  0  0  0  0  0  0
  -13.3438  -70.8528  -18.8480 O   0  0  0  0  0  0  0  0  0  0  0  0
  -11.9106  -70.7261  -20.8479 C   0  0  2  0  0  0  0  0  0  0  0  0
  -12.1657  -71.8763  -21.6551 O   0  0  0  0  0  0  0  0  0  0  0  0
  -10.5697  -70.9226  -20.1309 C   0  0  0  0  0  0  0  0  0  0  0  0
   -9.4072  -71.0078  -20.9432 C   0  0  0  0  0  0  0  0  0  0  0  0
   -8.1215  -71.1795  -20.4226 C   0  0  0  0  0  0  0  0  0  0  0  0
   -7.9141  -71.2607  -19.0480 C   0  0  0  0  0  0  0  0  0  0  0  0
   -9.0241  -71.1721  -18.2034 C   0  0  0  0  0  0  0  0  0  0  0  0
   -9.0521  -71.1733  -16.8259 N   0  0  0  0  0  0  0  0  0  0  0  0
  -10.3231  -71.1067  -16.5179 C   0  0  0  0  0  0  0  0  0  0  0  0
  -11.1015  -71.0129  -17.6319 N   0  0  0  0  0  0  0  0  0  0  0  0
  -10.3017  -71.0296  -18.7493 C   0  0  0  0  0  0  0  0  0  0  0  0
  1  2  1  0
  2  3  1  0
  3  4  2  0
  3  5  1  0
  5  6  1  1
  5  7  1  0
  7  8  2  0
  8  9  1  0
  9 10  2  0
 10 11  1  0
 11 12  1  0
 12 13  2  0
 13 14  1  0
 14 15  1  0
 15  7  1  0
 15 11  2  0
M  END
>  <SLURM_JOB_NAME>  (15) 
BulkDock.place:Flavi_NS5_RdRp:RdRp_knitwork_thumb_site_2_impure_split4000_batch000

>  <fragmenstein_error>  (15) 
['']

>  <HIPPO Compound ID>  (15) 
6893

>  <alias>  (15) 
None

>  <energy_score>  (15) 
-37.943042

>  <exports>  (15) 
['/opt/xchem-fragalysis-2/maxwin/BulkDock/OUTPUTS/RdRp_knitwork_thumb_site_2_impure_split4000_batch000_211013.sdf']

>  <fragmenstein_outcome>  (15) 
['acceptable']

>  <fragmenstein_mode>  (15) 
['expansion']

>  <HIPPO Pose ID>  (15) 
39925

>  <name>  (15) 
CTJSCEHAPFNTBT-SECBINFHSA-N

>  <fragmenstein_runtime>  (15) 
[1.7209384441375732]

>  <csv_name>  (15) 
RdRp_knitwork_thumb_site_2_impure_split4000_batch000.csv

>  <inchikey>  (15) 
CTJSCEHAPFNTBT-SECBINFHSA-N

>  <original SMILES>  (15) 
COC(=O)[C@H](O)c1cccc2nc[nH]c12

>  <scratch_subdir>  (15) 
['/opt/xchem-fragalysis-2/maxwin/BulkDock/SCRATCH/211013/C6893-P17']

>  <tags>  (15) 
['Fragmenstein placed']

>  <distance_score>  (15) 
0.850146

>  <original ID>  (15) 
CTJSCEHAPFNTBT-SECBINFHSA-N

>  <ref_mols>  (15) 
d0174a,d0693a

>  <SLURM_JOB_ID>  (15) 
211013

>  <ref_pdb>  (15) 
d0174a

$$$$
39928
     RDKit          3D

 15 16  0  0  0  0  0  0  0  0999 V2000
  -14.9611  -69.3205  -20.8406 C   0  0  0  0  0  0  0  0  0  0  0  0
  -13.6637  -69.7227  -21.2795 O   0  0  0  0  0  0  0  0  0  0  0  0
  -12.9432  -70.4842  -20.4070 C   0  0  0  0  0  0  0  0  0  0  0  0
  -13.3073  -70.7564  -19.2660 O   0  0  0  0  0  0  0  0  0  0  0  0
  -11.6696  -71.0078  -21.0998 C   0  0  2  0  0  0  0  0  0  0  0  0
  -11.9002  -72.3318  -21.5873 O   0  0  0  0  0  0  0  0  0  0  0  0
  -10.4028  -71.0273  -20.2559 C   0  0  0  0  0  0  0  0  0  0  0  0
   -9.1604  -70.8291  -20.9065 C   0  0  0  0  0  0  0  0  0  0  0  0
   -7.9355  -70.8973  -20.2370 C   0  0  0  0  0  0  0  0  0  0  0  0
   -7.8865  -71.1665  -18.8694 C   0  0  0  0  0  0  0  0  0  0  0  0
   -9.0899  -71.3725  -18.1859 C   0  0  0  0  0  0  0  0  0  0  0  0
   -9.2900  -71.6160  -16.8474 N   0  0  0  0  0  0  0  0  0  0  0  0
  -10.5845  -71.7854  -16.7241 C   0  0  0  0  0  0  0  0  0  0  0  0
  -11.2270  -71.6287  -17.9172 N   0  0  0  0  0  0  0  0  0  0  0  0
  -10.2959  -71.3265  -18.8832 C   0  0  0  0  0  0  0  0  0  0  0  0
  1  2  1  0
  2  3  1  0
  3  4  2  0
  3  5  1  0
  5  6  1  1
  5  7  1  0
  7  8  2  0
  8  9  1  0
  9 10  2  0
 10 11  1  0
 11 12  1  0
 12 13  2  0
 13 14  1  0
 14 15  1  0
 15  7  1  0
 15 11  2  0
M  END
>  <SLURM_JOB_NAME>  (16) 
BulkDock.place:Flavi_NS5_RdRp:RdRp_knitwork_thumb_site_2_impure_split4000_batch000

>  <fragmenstein_error>  (16) 
['']

>  <HIPPO Compound ID>  (16) 
6893

>  <alias>  (16) 
None

>  <energy_score>  (16) 
-45.717222

>  <exports>  (16) 
['/opt/xchem-fragalysis-2/maxwin/BulkDock/OUTPUTS/RdRp_knitwork_thumb_site_2_impure_split4000_batch000_211013.sdf']

>  <fragmenstein_outcome>  (16) 
['acceptable']

>  <fragmenstein_mode>  (16) 
['expansion']

>  <HIPPO Pose ID>  (16) 
39928

>  <name>  (16) 
CTJSCEHAPFNTBT-SECBINFHSA-N

>  <fragmenstein_runtime>  (16) 
[1.958495855331421]

>  <csv_name>  (16) 
RdRp_knitwork_thumb_site_2_impure_split4000_batch000.csv

>  <inchikey>  (16) 
CTJSCEHAPFNTBT-SECBINFHSA-N

>  <original SMILES>  (16) 
COC(=O)[C@H](O)c1cccc2nc[nH]c12

>  <scratch_subdir>  (16) 
['/opt/xchem-fragalysis-2/maxwin/BulkDock/SCRATCH/211013/C6893-P53']

>  <tags>  (16) 
['Fragmenstein placed']

>  <distance_score>  (16) 
0.883724

>  <original ID>  (16) 
CTJSCEHAPFNTBT-SECBINFHSA-N

>  <ref_mols>  (16) 
d0174a,d0693a

>  <SLURM_JOB_ID>  (16) 
211013

>  <ref_pdb>  (16) 
d0693a

$$$$
41967
     RDKit          3D

 16 16  0  0  0  0  0  0  0  0999 V2000
  -17.0828  -70.1663  -24.0409 C   0  0  0  0  0  0  0  0  0  0  0  0
  -15.7644  -70.1129  -23.8187 C   0  0  0  0  0  0  0  0  0  0  0  0
  -15.1182  -70.4615  -22.5095 C   0  0  0  0  0  0  0  0  0  0  0  0
  -14.4746  -69.2616  -21.8525 C   0  0  0  0  0  0  0  0  0  0  0  0
  -13.6900  -69.6595  -20.2947 S   0  0  0  0  0  0  0  0  0  0  0  0
  -12.8072  -68.5741  -19.9570 O   0  0  0  0  0  0  0  0  0  0  0  0
  -14.6814  -70.1149  -19.3404 O   0  0  0  0  0  0  0  0  0  0  0  0
  -12.7702  -71.0115  -20.6253 N   0  0  0  0  0  0  0  0  0  0  0  0
  -11.3945  -70.9086  -21.1336 C   0  0  0  0  0  0  0  0  0  0  0  0
  -10.3658  -70.5408  -20.0404 C   0  0  2  0  0  0  0  0  0  0  0  0
   -8.9509  -70.4585  -20.6459 C   0  0  0  0  0  0  0  0  0  0  0  0
   -8.0746  -71.6942  -20.4635 C   0  0  0  0  0  0  0  0  0  0  0  0
   -7.4089  -71.7488  -19.0896 C   0  0  0  0  0  0  0  0  0  0  0  0
   -8.3389  -72.1142  -17.9382 C   0  0  0  0  0  0  0  0  0  0  0  0
   -9.4766  -71.2093  -17.7632 N   0  0  0  0  0  0  0  0  0  0  0  0
  -10.5027  -71.4257  -18.7919 C   0  0  0  0  0  0  0  0  0  0  0  0
  1  2  2  0
  2  3  1  0
  3  4  1  0
  4  5  1  0
  5  6  2  0
  5  7  2  0
  5  8  1  0
  8  9  1  0
 10  9  1  6
 10 11  1  0
 11 12  1  0
 12 13  1  0
 13 14  1  0
 14 15  1  0
 15 16  1  0
 16 10  1  0
M  END
>  <SLURM_JOB_NAME>  (17) 
BulkDock.place:Flavi_NS5_RdRp:RdRp_knitwork_thumb_site_2_impure_split4000_batch001

>  <fragmenstein_error>  (17) 
['']

>  <HIPPO Compound ID>  (17) 
2109

>  <alias>  (17) 
None

>  <energy_score>  (17) 
-53.782661

>  <exports>  (17) 
['/opt/xchem-fragalysis-2/maxwin/BulkDock/OUTPUTS/RdRp_knitwork_thumb_site_2_impure_split4000_batch001_211014.sdf']

>  <fragmenstein_outcome>  (17) 
['acceptable']

>  <fragmenstein_mode>  (17) 
['expansion']

>  <HIPPO Pose ID>  (17) 
41967

>  <name>  (17) 
GACJTGPYYZRCQS-LLVKDONJSA-N

>  <fragmenstein_runtime>  (17) 
[3.3807735443115234]

>  <csv_name>  (17) 
RdRp_knitwork_thumb_site_2_impure_split4000_batch001.csv

>  <inchikey>  (17) 
GACJTGPYYZRCQS-LLVKDONJSA-N

>  <original SMILES>  (17) 
C=CCCS(=O)(=O)NC[C@@H]1CCCCNC1

>  <scratch_subdir>  (17) 
['/opt/xchem-fragalysis-2/maxwin/BulkDock/SCRATCH/211014/C2109-P17']

>  <tags>  (17) 
['Fragmenstein placed']

>  <distance_score>  (17) 
0.812871

>  <original ID>  (17) 
GACJTGPYYZRCQS-LLVKDONJSA-N

>  <ref_mols>  (17) 
d0174a,d0176a

>  <SLURM_JOB_ID>  (17) 
211014

>  <ref_pdb>  (17) 
d0174a

$$$$
41973
     RDKit          3D

 16 16  0  0  0  0  0  0  0  0999 V2000
  -16.9412  -70.2524  -23.7164 C   0  0  0  0  0  0  0  0  0  0  0  0
  -15.6140  -70.1329  -23.8478 C   0  0  0  0  0  0  0  0  0  0  0  0
  -14.5955  -69.8935  -22.7626 C   0  0  0  0  0  0  0  0  0  0  0  0
  -15.1341  -69.9539  -21.3416 C   0  0  0  0  0  0  0  0  0  0  0  0
  -13.8456  -69.8460  -20.1123 S   0  0  0  0  0  0  0  0  0  0  0  0
  -13.0727  -68.6542  -20.3482 O   0  0  0  0  0  0  0  0  0  0  0  0
  -14.4358  -70.1314  -18.8169 O   0  0  0  0  0  0  0  0  0  0  0  0
  -12.9059  -71.1955  -20.4461 N   0  0  0  0  0  0  0  0  0  0  0  0
  -11.5117  -71.0246  -20.9026 C   0  0  0  0  0  0  0  0  0  0  0  0
  -10.5472  -70.5570  -19.7867 C   0  0  2  0  0  0  0  0  0  0  0  0
   -9.1276  -70.4079  -20.3680 C   0  0  0  0  0  0  0  0  0  0  0  0
   -8.2033  -71.6117  -20.1889 C   0  0  0  0  0  0  0  0  0  0  0  0
   -7.5428  -71.6554  -18.8131 C   0  0  0  0  0  0  0  0  0  0  0  0
   -8.4690  -72.0536  -17.6714 C   0  0  0  0  0  0  0  0  0  0  0  0
   -9.6313  -71.1782  -17.5041 N   0  0  0  0  0  0  0  0  0  0  0  0
  -10.6488  -71.4372  -18.5319 C   0  0  0  0  0  0  0  0  0  0  0  0
  1  2  2  0
  2  3  1  0
  3  4  1  0
  4  5  1  0
  5  6  2  0
  5  7  2  0
  5  8  1  0
  8  9  1  0
 10  9  1  6
 10 11  1  0
 11 12  1  0
 12 13  1  0
 13 14  1  0
 14 15  1  0
 15 16  1  0
 16 10  1  0
M  END
>  <SLURM_JOB_NAME>  (18) 
BulkDock.place:Flavi_NS5_RdRp:RdRp_knitwork_thumb_site_2_impure_split4000_batch001

>  <fragmenstein_error>  (18) 
['']

>  <HIPPO Compound ID>  (18) 
2109

>  <alias>  (18) 
None

>  <energy_score>  (18) 
-53.860506

>  <exports>  (18) 
['/opt/xchem-fragalysis-2/maxwin/BulkDock/OUTPUTS/RdRp_knitwork_thumb_site_2_impure_split4000_batch001_211014.sdf']

>  <fragmenstein_outcome>  (18) 
['acceptable']

>  <fragmenstein_mode>  (18) 
['expansion']

>  <HIPPO Pose ID>  (18) 
41973

>  <name>  (18) 
GACJTGPYYZRCQS-LLVKDONJSA-N

>  <fragmenstein_runtime>  (18) 
[3.402564287185669]

>  <csv_name>  (18) 
RdRp_knitwork_thumb_site_2_impure_split4000_batch001.csv

>  <inchikey>  (18) 
GACJTGPYYZRCQS-LLVKDONJSA-N

>  <original SMILES>  (18) 
C=CCCS(=O)(=O)NC[C@@H]1CCCCNC1

>  <scratch_subdir>  (18) 
['/opt/xchem-fragalysis-2/maxwin/BulkDock/SCRATCH/211014/C2109-P18']

>  <tags>  (18) 
['Fragmenstein placed']

>  <distance_score>  (18) 
0.749696

>  <original ID>  (18) 
GACJTGPYYZRCQS-LLVKDONJSA-N

>  <ref_mols>  (18) 
d0174a,d0176a

>  <SLURM_JOB_ID>  (18) 
211014

>  <ref_pdb>  (18) 
d0176a

$$$$
42983
     RDKit          3D

 24 26  0  0  0  0  0  0  0  0999 V2000
  -15.3905  -69.9645  -22.6276 C   0  0  0  0  0  0  0  0  0  0  0  0
  -14.6850  -68.9275  -21.7884 C   0  0  0  0  0  0  0  0  0  0  0  0
  -13.8422  -69.5912  -20.3594 S   0  0  0  0  0  0  0  0  0  0  0  0
  -12.8001  -68.6678  -19.9822 O   0  0  0  0  0  0  0  0  0  0  0  0
  -14.8051  -70.0486  -19.3801 O   0  0  0  0  0  0  0  0  0  0  0  0
  -13.1220  -70.9745  -20.9545 N   0  0  0  0  0  0  0  0  0  0  0  0
  -11.7426  -70.9189  -21.4378 C   0  0  0  0  0  0  0  0  0  0  0  0
  -10.7497  -71.5293  -20.4345 C   0  0  2  0  0  0  0  0  0  0  0  0
  -11.1775  -71.4458  -18.9605 C   0  0  0  0  0  0  0  0  0  0  0  0
  -10.0743  -71.9549  -18.0438 C   0  0  0  0  0  0  0  0  0  0  0  0
   -8.7870  -71.1935  -18.3190 C   0  0  0  0  0  0  0  0  0  0  0  0
   -8.3660  -71.4032  -19.7087 N   0  0  0  0  0  0  0  0  0  0  0  0
   -7.0615  -70.7803  -19.9980 C   0  0  0  0  0  0  0  0  0  0  0  0
   -5.8362  -71.4816  -19.4448 C   0  0  0  0  0  0  0  0  0  0  0  0
   -5.9587  -72.6973  -18.7482 C   0  0  0  0  0  0  0  0  0  0  0  0
   -4.8452  -73.3504  -18.2442 C   0  0  0  0  0  0  0  0  0  0  0  0
   -3.5800  -72.8324  -18.4816 C   0  0  0  0  0  0  0  0  0  0  0  0
   -3.4098  -71.6566  -19.2213 C   0  0  0  0  0  0  0  0  0  0  0  0
   -2.1136  -71.1896  -19.4826 C   0  0  0  0  0  0  0  0  0  0  0  0
   -1.9035  -70.0230  -20.2107 C   0  0  0  0  0  0  0  0  0  0  0  0
   -2.9911  -69.3041  -20.6810 C   0  0  0  0  0  0  0  0  0  0  0  0
   -4.2868  -69.7513  -20.4116 C   0  0  0  0  0  0  0  0  0  0  0  0
   -4.5356  -70.9475  -19.6995 C   0  0  0  0  0  0  0  0  0  0  0  0
   -9.3746  -70.8704  -20.6386 C   0  0  0  0  0  0  0  0  0  0  0  0
  1  2  1  0
  2  3  1  0
  3  4  2  0
  3  5  2  0
  3  6  1  0
  6  7  1  0
  8  7  1  6
  8  9  1  0
  9 10  1  0
 10 11  1  0
 11 12  1  0
 12 13  1  0
 13 14  1  0
 14 15  2  0
 15 16  1  0
 16 17  2  0
 17 18  1  0
 18 19  2  0
 19 20  1  0
 20 21  2  0
 21 22  1  0
 22 23  2  0
 12 24  1  0
 24  8  1  0
 23 14  1  0
 23 18  1  0
M  END
>  <SLURM_JOB_NAME>  (19) 
BulkDock.place:Flavi_NS5_RdRp:RdRp_knitwork_thumb_site_2_impure_split4000_batch001

>  <fragmenstein_error>  (19) 
['']

>  <HIPPO Compound ID>  (19) 
1191

>  <alias>  (19) 
None

>  <energy_score>  (19) 
-56.453073

>  <exports>  (19) 
['/opt/xchem-fragalysis-2/maxwin/BulkDock/OUTPUTS/RdRp_knitwork_thumb_site_2_impure_split4000_batch001_211014.sdf']

>  <fragmenstein_outcome>  (19) 
['acceptable']

>  <fragmenstein_mode>  (19) 
['expansion']

>  <HIPPO Pose ID>  (19) 
42983

>  <name>  (19) 
FUWSPQRSVMNQLD-INIZCTEOSA-N

>  <fragmenstein_runtime>  (19) 
[29.226440906524658]

>  <csv_name>  (19) 
RdRp_knitwork_thumb_site_2_impure_split4000_batch001.csv

>  <inchikey>  (19) 
FUWSPQRSVMNQLD-INIZCTEOSA-N

>  <original SMILES>  (19) 
CCS(=O)(=O)NC[C@@H]1CCCN(Cc2cccc3ccccc23)C1

>  <scratch_subdir>  (19) 
['/opt/xchem-fragalysis-2/maxwin/BulkDock/SCRATCH/211014/C1191-P17']

>  <tags>  (19) 
['Fragmenstein placed']

>  <distance_score>  (19) 
0.996182

>  <original ID>  (19) 
FUWSPQRSVMNQLD-INIZCTEOSA-N

>  <ref_mols>  (19) 
d0174a,d0787a

>  <SLURM_JOB_ID>  (19) 
211014

>  <ref_pdb>  (19) 
d0174a

$$$$
42994
     RDKit          3D

 24 26  0  0  0  0  0  0  0  0999 V2000
  -14.8031  -69.4080  -22.7490 C   0  0  0  0  0  0  0  0  0  0  0  0
  -15.2711  -69.5307  -21.3131 C   0  0  0  0  0  0  0  0  0  0  0  0
  -13.9267  -69.8020  -20.1675 S   0  0  0  0  0  0  0  0  0  0  0  0
  -13.0435  -68.6622  -20.1956 O   0  0  0  0  0  0  0  0  0  0  0  0
  -14.4670  -70.3036  -18.9198 O   0  0  0  0  0  0  0  0  0  0  0  0
  -13.1497  -71.1136  -20.8740 N   0  0  0  0  0  0  0  0  0  0  0  0
  -11.7781  -70.9319  -21.3690 C   0  0  0  0  0  0  0  0  0  0  0  0
  -10.7299  -71.5136  -20.4103 C   0  0  2  0  0  0  0  0  0  0  0  0
  -11.1132  -71.4795  -18.9241 C   0  0  0  0  0  0  0  0  0  0  0  0
   -9.9721  -72.0160  -18.0714 C   0  0  0  0  0  0  0  0  0  0  0  0
   -8.6960  -71.2411  -18.3613 C   0  0  0  0  0  0  0  0  0  0  0  0
   -8.3303  -71.3426  -19.7826 N   0  0  0  0  0  0  0  0  0  0  0  0
   -7.0499  -70.6598  -20.0650 C   0  0  0  0  0  0  0  0  0  0  0  0
   -5.8085  -71.3779  -19.5701 C   0  0  0  0  0  0  0  0  0  0  0  0
   -5.9022  -72.6874  -19.0608 C   0  0  0  0  0  0  0  0  0  0  0  0
   -4.7859  -73.3531  -18.5813 C   0  0  0  0  0  0  0  0  0  0  0  0
   -3.5419  -72.7444  -18.6566 C   0  0  0  0  0  0  0  0  0  0  0  0
   -3.3977  -71.4648  -19.2061 C   0  0  0  0  0  0  0  0  0  0  0  0
   -2.1203  -70.8929  -19.2885 C   0  0  0  0  0  0  0  0  0  0  0  0
   -1.9380  -69.6101  -19.7981 C   0  0  0  0  0  0  0  0  0  0  0  0
   -3.0331  -68.8853  -20.2416 C   0  0  0  0  0  0  0  0  0  0  0  0
   -4.3090  -69.4502  -20.1763 C   0  0  0  0  0  0  0  0  0  0  0  0
   -4.5301  -70.7510  -19.6632 C   0  0  0  0  0  0  0  0  0  0  0  0
   -9.3928  -70.7846  -20.6292 C   0  0  0  0  0  0  0  0  0  0  0  0
  1  2  1  0
  2  3  1  0
  3  4  2  0
  3  5  2  0
  3  6  1  0
  6  7  1  0
  8  7  1  6
  8  9  1  0
  9 10  1  0
 10 11  1  0
 11 12  1  0
 12 13  1  0
 13 14  1  0
 14 15  2  0
 15 16  1  0
 16 17  2  0
 17 18  1  0
 18 19  2  0
 19 20  1  0
 20 21  2  0
 21 22  1  0
 22 23  2  0
 12 24  1  0
 24  8  1  0
 23 14  1  0
 23 18  1  0
M  END
>  <SLURM_JOB_NAME>  (20) 
BulkDock.place:Flavi_NS5_RdRp:RdRp_knitwork_thumb_site_2_impure_split4000_batch001

>  <fragmenstein_error>  (20) 
['']

>  <HIPPO Compound ID>  (20) 
1191

>  <alias>  (20) 
None

>  <energy_score>  (20) 
-57.098209

>  <exports>  (20) 
['/opt/xchem-fragalysis-2/maxwin/BulkDock/OUTPUTS/RdRp_knitwork_thumb_site_2_impure_split4000_batch001_211014.sdf']

>  <fragmenstein_outcome>  (20) 
['acceptable']

>  <fragmenstein_mode>  (20) 
['expansion']

>  <HIPPO Pose ID>  (20) 
42994

>  <name>  (20) 
FUWSPQRSVMNQLD-INIZCTEOSA-N

>  <fragmenstein_runtime>  (20) 
[27.73651123046875]

>  <csv_name>  (20) 
RdRp_knitwork_thumb_site_2_impure_split4000_batch001.csv

>  <inchikey>  (20) 
FUWSPQRSVMNQLD-INIZCTEOSA-N

>  <original SMILES>  (20) 
CCS(=O)(=O)NC[C@@H]1CCCN(Cc2cccc3ccccc23)C1

>  <scratch_subdir>  (20) 
['/opt/xchem-fragalysis-2/maxwin/BulkDock/SCRATCH/211014/C1191-P59']

>  <tags>  (20) 
['Fragmenstein placed']

>  <distance_score>  (20) 
0.930506

>  <original ID>  (20) 
FUWSPQRSVMNQLD-INIZCTEOSA-N

>  <ref_mols>  (20) 
d0174a,d0787a

>  <SLURM_JOB_ID>  (20) 
211014

>  <ref_pdb>  (20) 
d0787a

$$$$
43149
     RDKit          3D

 18 19  0  0  0  0  0  0  0  0999 V2000
  -14.6930  -69.4205  -23.3638 C   0  0  0  0  0  0  0  0  0  0  0  0
  -14.3189  -70.8391  -22.8804 C   0  0  0  0  0  0  0  0  0  0  0  0
  -15.5109  -71.3645  -22.0643 C   0  0  0  0  0  0  0  0  0  0  0  0
  -14.0905  -71.7929  -24.0804 C   0  0  0  0  0  0  0  0  0  0  0  0
  -13.0967  -71.3366  -24.9847 O   0  0  0  0  0  0  0  0  0  0  0  0
  -13.1407  -70.8485  -21.9731 N   0  0  0  0  0  0  0  0  0  0  0  0
  -12.1247  -69.7692  -22.0680 C   0  0  0  0  0  0  0  0  0  0  0  0
  -11.8002  -69.8572  -23.2719 O   0  0  0  0  0  0  0  0  0  0  0  0
  -11.4763  -70.5055  -20.9123 C   0  0  0  0  0  0  0  0  0  0  0  0
  -11.8350  -70.3739  -19.5769 C   0  0  0  0  0  0  0  0  0  0  0  0
  -10.6617  -71.1185  -18.5707 S   0  0  0  0  0  0  0  0  0  0  0  0
   -9.7029  -71.4315  -19.9520 C   0  0  0  0  0  0  0  0  0  0  0  0
   -8.2537  -72.0094  -19.9231 C   0  0  0  0  0  0  0  0  0  0  0  0
   -7.5092  -72.4239  -18.7868 C   0  0  0  0  0  0  0  0  0  0  0  0
   -6.2626  -72.8880  -19.1467 C   0  0  0  0  0  0  0  0  0  0  0  0
   -5.9775  -72.7818  -20.8247 S   0  0  0  0  0  0  0  0  0  0  0  0
   -7.5422  -72.1628  -21.0930 C   0  0  0  0  0  0  0  0  0  0  0  0
  -10.2530  -71.1257  -21.1043 N   0  0  0  0  0  0  0  0  0  0  0  0
  1  2  1  0
  2  3  1  0
  2  4  1  0
  4  5  1  0
  2  6  1  0
  6  7  1  0
  7  8  2  0
  7  9  1  0
  9 10  2  0
 10 11  1  0
 11 12  1  0
 12 13  1  0
 13 14  1  0
 14 15  2  0
 15 16  1  0
 16 17  1  0
 12 18  2  0
 18  9  1  0
 17 13  2  0
M  END
>  <SLURM_JOB_NAME>  (21) 
BulkDock.place:Flavi_NS5_RdRp:RdRp_knitwork_thumb_site_2_impure_split4000_batch001

>  <fragmenstein_error>  (21) 
['']

>  <HIPPO Compound ID>  (21) 
1443

>  <alias>  (21) 
None

>  <energy_score>  (21) 
-8.124454

>  <exports>  (21) 
['/opt/xchem-fragalysis-2/maxwin/BulkDock/OUTPUTS/RdRp_knitwork_thumb_site_2_impure_split4000_batch001_211014.sdf']

>  <fragmenstein_outcome>  (21) 
['acceptable']

>  <fragmenstein_mode>  (21) 
['expansion']

>  <HIPPO Pose ID>  (21) 
43149

>  <name>  (21) 
IQFFGYDSWILZBZ-UHFFFAOYSA-N

>  <fragmenstein_runtime>  (21) 
[9.295448541641235]

>  <csv_name>  (21) 
RdRp_knitwork_thumb_site_2_impure_split4000_batch001.csv

>  <inchikey>  (21) 
IQFFGYDSWILZBZ-UHFFFAOYSA-N

>  <original SMILES>  (21) 
CC(C)(CO)NC(=O)c1csc(-c2ccsc2)n1

>  <scratch_subdir>  (21) 
['/opt/xchem-fragalysis-2/maxwin/BulkDock/SCRATCH/211014/C1443-P22']

>  <tags>  (21) 
['Fragmenstein placed']

>  <distance_score>  (21) 
0.9238

>  <original ID>  (21) 
IQFFGYDSWILZBZ-UHFFFAOYSA-N

>  <ref_mols>  (21) 
d0248a,d0376a

>  <SLURM_JOB_ID>  (21) 
211014

>  <ref_pdb>  (21) 
d0248a

$$$$
43154
     RDKit          3D

 18 19  0  0  0  0  0  0  0  0999 V2000
  -14.6703  -69.2999  -22.9966 C   0  0  0  0  0  0  0  0  0  0  0  0
  -14.2653  -70.7300  -22.6132 C   0  0  0  0  0  0  0  0  0  0  0  0
  -15.4292  -71.3177  -21.8034 C   0  0  0  0  0  0  0  0  0  0  0  0
  -14.0675  -71.6058  -23.8706 C   0  0  0  0  0  0  0  0  0  0  0  0
  -13.1380  -71.0959  -24.8112 O   0  0  0  0  0  0  0  0  0  0  0  0
  -13.0673  -70.7582  -21.7439 N   0  0  0  0  0  0  0  0  0  0  0  0
  -12.0306  -69.7063  -21.8899 C   0  0  0  0  0  0  0  0  0  0  0  0
  -11.7559  -69.7759  -23.1061 O   0  0  0  0  0  0  0  0  0  0  0  0
  -11.3375  -70.4907  -20.8017 C   0  0  0  0  0  0  0  0  0  0  0  0
  -11.4679  -70.2223  -19.4477 C   0  0  0  0  0  0  0  0  0  0  0  0
  -10.1863  -70.9640  -18.5795 S   0  0  0  0  0  0  0  0  0  0  0  0
   -9.5254  -71.5036  -20.0619 C   0  0  0  0  0  0  0  0  0  0  0  0
   -8.1030  -72.1080  -20.2628 C   0  0  0  0  0  0  0  0  0  0  0  0
   -7.6713  -72.6699  -21.5013 C   0  0  0  0  0  0  0  0  0  0  0  0
   -6.3701  -73.1077  -21.4448 C   0  0  0  0  0  0  0  0  0  0  0  0
   -5.6577  -72.7883  -19.9240 S   0  0  0  0  0  0  0  0  0  0  0  0
   -7.1117  -72.1242  -19.3115 C   0  0  0  0  0  0  0  0  0  0  0  0
  -10.2872  -71.3322  -21.1164 N   0  0  0  0  0  0  0  0  0  0  0  0
  1  2  1  0
  2  3  1  0
  2  4  1  0
  4  5  1  0
  2  6  1  0
  6  7  1  0
  7  8  2  0
  7  9  1  0
  9 10  2  0
 10 11  1  0
 11 12  1  0
 12 13  1  0
 13 14  1  0
 14 15  2  0
 15 16  1  0
 16 17  1  0
 12 18  2  0
 18  9  1  0
 17 13  2  0
M  END
>  <SLURM_JOB_NAME>  (22) 
BulkDock.place:Flavi_NS5_RdRp:RdRp_knitwork_thumb_site_2_impure_split4000_batch001

>  <fragmenstein_error>  (22) 
['']

>  <HIPPO Compound ID>  (22) 
1443

>  <alias>  (22) 
None

>  <energy_score>  (22) 
-6.451584

>  <exports>  (22) 
['/opt/xchem-fragalysis-2/maxwin/BulkDock/OUTPUTS/RdRp_knitwork_thumb_site_2_impure_split4000_batch001_211014.sdf']

>  <fragmenstein_outcome>  (22) 
['acceptable']

>  <fragmenstein_mode>  (22) 
['expansion']

>  <HIPPO Pose ID>  (22) 
43154

>  <name>  (22) 
IQFFGYDSWILZBZ-UHFFFAOYSA-N

>  <fragmenstein_runtime>  (22) 
[8.980676412582397]

>  <csv_name>  (22) 
RdRp_knitwork_thumb_site_2_impure_split4000_batch001.csv

>  <inchikey>  (22) 
IQFFGYDSWILZBZ-UHFFFAOYSA-N

>  <original SMILES>  (22) 
CC(C)(CO)NC(=O)c1csc(-c2ccsc2)n1

>  <scratch_subdir>  (22) 
['/opt/xchem-fragalysis-2/maxwin/BulkDock/SCRATCH/211014/C1443-P33']

>  <tags>  (22) 
['Fragmenstein placed']

>  <distance_score>  (22) 
0.806872

>  <original ID>  (22) 
IQFFGYDSWILZBZ-UHFFFAOYSA-N

>  <ref_mols>  (22) 
d0248a,d0376a

>  <SLURM_JOB_ID>  (22) 
211014

>  <ref_pdb>  (22) 
d0376a

$$$$
43805
     RDKit          3D

 21 22  0  0  0  0  0  0  0  0999 V2000
  -13.9171  -69.3506  -23.1723 C   0  0  0  0  0  0  0  0  0  0  0  0
  -13.7375  -70.7865  -22.6372 C   0  0  0  0  0  0  0  0  0  0  0  0
  -14.9919  -71.1179  -21.7956 C   0  0  0  0  0  0  0  0  0  0  0  0
  -13.6768  -71.8130  -23.8001 C   0  0  0  0  0  0  0  0  0  0  0  0
  -12.7350  -71.4746  -24.8057 O   0  0  0  0  0  0  0  0  0  0  0  0
  -12.5473  -70.8936  -21.7179 N   0  0  0  0  0  0  0  0  0  0  0  0
  -11.2728  -70.1072  -21.9512 C   0  0  0  0  0  0  0  0  0  0  0  0
  -11.0542  -70.4959  -23.1182 O   0  0  0  0  0  0  0  0  0  0  0  0
  -10.8116  -70.6989  -20.6105 C   0  0  0  0  0  0  0  0  0  0  0  0
  -11.4419  -70.4042  -19.3974 C   0  0  0  0  0  0  0  0  0  0  0  0
  -10.6613  -71.0639  -18.0374 S   0  0  0  0  0  0  0  0  0  0  0  0
   -9.3145  -71.5158  -18.9747 C   0  0  0  0  0  0  0  0  0  0  0  0
   -9.4803  -71.2515  -20.3186 C   0  0  0  0  0  0  0  0  0  0  0  0
   -8.4733  -71.3657  -21.2315 O   0  0  0  0  0  0  0  0  0  0  0  0
   -7.3638  -72.2317  -20.9090 C   0  0  0  0  0  0  0  0  0  0  0  0
   -6.0681  -71.5173  -20.5588 C   0  0  0  0  0  0  0  0  0  0  0  0
   -6.0419  -70.1814  -20.1505 C   0  0  0  0  0  0  0  0  0  0  0  0
   -4.8286  -69.5142  -19.9725 C   0  0  0  0  0  0  0  0  0  0  0  0
   -3.6192  -70.1788  -20.1588 C   0  0  0  0  0  0  0  0  0  0  0  0
   -3.6255  -71.5224  -20.5151 C   0  0  0  0  0  0  0  0  0  0  0  0
   -4.8403  -72.1888  -20.7079 C   0  0  0  0  0  0  0  0  0  0  0  0
  1  2  1  0
  2  3  1  0
  2  4  1  0
  4  5  1  0
  2  6  1  0
  6  7  1  0
  7  8  2  0
  7  9  1  0
  9 10  2  0
 10 11  1  0
 11 12  1  0
 12 13  2  0
 13 14  1  0
 14 15  1  0
 15 16  1  0
 16 17  2  0
 17 18  1  0
 18 19  2  0
 19 20  1  0
 20 21  2  0
 13  9  1  0
 21 16  1  0
M  END
>  <SLURM_JOB_NAME>  (23) 
BulkDock.place:Flavi_NS5_RdRp:RdRp_knitwork_thumb_site_2_impure_split4000_batch001

>  <fragmenstein_error>  (23) 
['']

>  <HIPPO Compound ID>  (23) 
2126

>  <alias>  (23) 
None

>  <energy_score>  (23) 
-276.448991

>  <exports>  (23) 
['/opt/xchem-fragalysis-2/maxwin/BulkDock/OUTPUTS/RdRp_knitwork_thumb_site_2_impure_split4000_batch001_211014.sdf']

>  <fragmenstein_outcome>  (23) 
['acceptable']

>  <fragmenstein_mode>  (23) 
['expansion']

>  <HIPPO Pose ID>  (23) 
43805

>  <name>  (23) 
GPNXAYYCCMHODH-UHFFFAOYSA-N

>  <fragmenstein_runtime>  (23) 
[50.78167748451233]

>  <csv_name>  (23) 
RdRp_knitwork_thumb_site_2_impure_split4000_batch001.csv

>  <inchikey>  (23) 
GPNXAYYCCMHODH-UHFFFAOYSA-N

>  <original SMILES>  (23) 
CC(C)(CO)NC(=O)c1cscc1OCc1ccccc1

>  <scratch_subdir>  (23) 
['/opt/xchem-fragalysis-2/maxwin/BulkDock/SCRATCH/211014/C2126-P22']

>  <tags>  (23) 
['Fragmenstein placed']

>  <distance_score>  (23) 
0.930405

>  <original ID>  (23) 
GPNXAYYCCMHODH-UHFFFAOYSA-N

>  <ref_mols>  (23) 
d0248a,d0376a

>  <SLURM_JOB_ID>  (23) 
211014

>  <ref_pdb>  (23) 
d0248a

$$$$
43828
     RDKit          3D

 21 22  0  0  0  0  0  0  0  0999 V2000
  -13.8789  -69.2986  -22.9836 C   0  0  0  0  0  0  0  0  0  0  0  0
  -13.6661  -70.7482  -22.5145 C   0  0  0  0  0  0  0  0  0  0  0  0
  -14.9124  -71.1368  -21.6846 C   0  0  0  0  0  0  0  0  0  0  0  0
  -13.5998  -71.7157  -23.7208 C   0  0  0  0  0  0  0  0  0  0  0  0
  -12.6486  -71.3491  -24.7055 O   0  0  0  0  0  0  0  0  0  0  0  0
  -12.4733  -70.8717  -21.6098 N   0  0  0  0  0  0  0  0  0  0  0  0
  -11.2224  -70.0363  -21.8007 C   0  0  0  0  0  0  0  0  0  0  0  0
  -10.9974  -70.3513  -22.9894 O   0  0  0  0  0  0  0  0  0  0  0  0
  -10.7387  -70.6902  -20.4971 C   0  0  0  0  0  0  0  0  0  0  0  0
  -11.3866  -70.4895  -19.2734 C   0  0  0  0  0  0  0  0  0  0  0  0
  -10.6002  -71.2070  -17.9484 S   0  0  0  0  0  0  0  0  0  0  0  0
   -9.2358  -71.5680  -18.8988 C   0  0  0  0  0  0  0  0  0  0  0  0
   -9.3894  -71.2120  -20.2234 C   0  0  0  0  0  0  0  0  0  0  0  0
   -8.3533  -71.2144  -21.1123 O   0  0  0  0  0  0  0  0  0  0  0  0
   -7.2607  -72.1283  -20.8654 C   0  0  0  0  0  0  0  0  0  0  0  0
   -5.9462  -71.4830  -20.4421 C   0  0  0  0  0  0  0  0  0  0  0  0
   -5.8909  -70.2945  -19.7064 C   0  0  0  0  0  0  0  0  0  0  0  0
   -4.6652  -69.7029  -19.3768 C   0  0  0  0  0  0  0  0  0  0  0  0
   -3.4705  -70.2951  -19.7751 C   0  0  0  0  0  0  0  0  0  0  0  0
   -3.5018  -71.4891  -20.4884 C   0  0  0  0  0  0  0  0  0  0  0  0
   -4.7273  -72.0866  -20.8044 C   0  0  0  0  0  0  0  0  0  0  0  0
  1  2  1  0
  2  3  1  0
  2  4  1  0
  4  5  1  0
  2  6  1  0
  6  7  1  0
  7  8  2  0
  7  9  1  0
  9 10  2  0
 10 11  1  0
 11 12  1  0
 12 13  2  0
 13 14  1  0
 14 15  1  0
 15 16  1  0
 16 17  2  0
 17 18  1  0
 18 19  2  0
 19 20  1  0
 20 21  2  0
 13  9  1  0
 21 16  1  0
M  END
>  <SLURM_JOB_NAME>  (24) 
BulkDock.place:Flavi_NS5_RdRp:RdRp_knitwork_thumb_site_2_impure_split4000_batch001

>  <fragmenstein_error>  (24) 
['']

>  <HIPPO Compound ID>  (24) 
2126

>  <alias>  (24) 
None

>  <energy_score>  (24) 
-275.708866

>  <exports>  (24) 
['/opt/xchem-fragalysis-2/maxwin/BulkDock/OUTPUTS/RdRp_knitwork_thumb_site_2_impure_split4000_batch001_211014.sdf']

>  <fragmenstein_outcome>  (24) 
['acceptable']

>  <fragmenstein_mode>  (24) 
['expansion']

>  <HIPPO Pose ID>  (24) 
43828

>  <name>  (24) 
GPNXAYYCCMHODH-UHFFFAOYSA-N

>  <fragmenstein_runtime>  (24) 
[45.70564842224121]

>  <csv_name>  (24) 
RdRp_knitwork_thumb_site_2_impure_split4000_batch001.csv

>  <inchikey>  (24) 
GPNXAYYCCMHODH-UHFFFAOYSA-N

>  <original SMILES>  (24) 
CC(C)(CO)NC(=O)c1cscc1OCc1ccccc1

>  <scratch_subdir>  (24) 
['/opt/xchem-fragalysis-2/maxwin/BulkDock/SCRATCH/211014/C2126-P33']

>  <tags>  (24) 
['Fragmenstein placed']

>  <distance_score>  (24) 
0.899116

>  <original ID>  (24) 
GPNXAYYCCMHODH-UHFFFAOYSA-N

>  <ref_mols>  (24) 
d0248a,d0376a

>  <SLURM_JOB_ID>  (24) 
211014

>  <ref_pdb>  (24) 
d0376a

$$$$
44149
     RDKit          3D

 14 14  0  0  0  0  0  0  0  0999 V2000
  -15.0453  -70.6968  -21.8593 C   0  0  0  0  0  0  0  0  0  0  0  0
  -13.9626  -69.9807  -21.0489 C   0  0  0  0  0  0  0  0  0  0  0  0
  -13.6226  -68.6884  -21.7699 C   0  0  0  0  0  0  0  0  0  0  0  0
  -14.5070  -69.6003  -19.6776 C   0  0  0  0  0  0  0  0  0  0  0  0
  -12.7440  -70.9214  -20.8330 C   0  0  0  0  0  0  0  0  0  0  0  0
  -12.9318  -72.1181  -20.5876 O   0  0  0  0  0  0  0  0  0  0  0  0
  -11.3412  -70.2917  -20.8085 C   0  0  2  0  0  0  0  0  0  0  0  0
  -10.8632  -70.0317  -22.1279 O   0  0  0  0  0  0  0  0  0  0  0  0
  -10.2678  -71.0336  -20.0313 C   0  0  0  0  0  0  0  0  0  0  0  0
  -10.5141  -71.6469  -18.8191 C   0  0  0  0  0  0  0  0  0  0  0  0
   -9.4140  -72.1364  -18.1521 C   0  0  0  0  0  0  0  0  0  0  0  0
   -8.1520  -72.0170  -18.6004 N   0  0  0  0  0  0  0  0  0  0  0  0
   -8.0107  -71.4143  -19.7878 C   0  0  0  0  0  0  0  0  0  0  0  0
   -9.0076  -70.9151  -20.5333 N   0  0  0  0  0  0  0  0  0  0  0  0
  1  2  1  0
  2  3  1  0
  2  4  1  0
  2  5  1  0
  5  6  2  0
  5  7  1  0
  7  8  1  6
  7  9  1  0
  9 10  2  0
 10 11  1  0
 11 12  2  0
 12 13  1  0
 13 14  2  0
 14  9  1  0
M  END
>  <SLURM_JOB_NAME>  (25) 
BulkDock.place:Flavi_NS5_RdRp:RdRp_knitwork_thumb_site_2_impure_split4000_batch001

>  <fragmenstein_error>  (25) 
['']

>  <HIPPO Compound ID>  (25) 
2536

>  <alias>  (25) 
None

>  <energy_score>  (25) 
-304.298681

>  <exports>  (25) 
['/opt/xchem-fragalysis-2/maxwin/BulkDock/OUTPUTS/RdRp_knitwork_thumb_site_2_impure_split4000_batch001_211014.sdf']

>  <fragmenstein_outcome>  (25) 
['acceptable']

>  <fragmenstein_mode>  (25) 
['expansion']

>  <HIPPO Pose ID>  (25) 
44149

>  <name>  (25) 
UXYWKDFBHZSKRC-MRVPVSSYSA-N

>  <fragmenstein_runtime>  (25) 
[6.894790887832642]

>  <csv_name>  (25) 
RdRp_knitwork_thumb_site_2_impure_split4000_batch001.csv

>  <inchikey>  (25) 
UXYWKDFBHZSKRC-MRVPVSSYSA-N

>  <original SMILES>  (25) 
CC(C)(C)C(=O)[C@H](O)c1ccncn1

>  <scratch_subdir>  (25) 
['/opt/xchem-fragalysis-2/maxwin/BulkDock/SCRATCH/211014/C2536-P17']

>  <tags>  (25) 
['Fragmenstein placed']

>  <distance_score>  (25) 
0.949608

>  <original ID>  (25) 
UXYWKDFBHZSKRC-MRVPVSSYSA-N

>  <ref_mols>  (25) 
d0174a,d0587a

>  <SLURM_JOB_ID>  (25) 
211014

>  <ref_pdb>  (25) 
d0174a

$$$$
44150
     RDKit          3D

 14 14  0  0  0  0  0  0  0  0999 V2000
  -14.9516  -70.6065  -21.7746 C   0  0  0  0  0  0  0  0  0  0  0  0
  -13.7702  -70.1520  -20.9088 C   0  0  0  0  0  0  0  0  0  0  0  0
  -13.5802  -68.6591  -21.1391 C   0  0  0  0  0  0  0  0  0  0  0  0
  -14.0717  -70.4004  -19.4402 C   0  0  0  0  0  0  0  0  0  0  0  0
  -12.5101  -71.0020  -21.2197 C   0  0  0  0  0  0  0  0  0  0  0  0
  -12.6210  -72.1927  -21.5305 O   0  0  0  0  0  0  0  0  0  0  0  0
  -11.1393  -70.3488  -21.0209 C   0  0  2  0  0  0  0  0  0  0  0  0
  -10.5955  -69.9482  -22.2766 O   0  0  0  0  0  0  0  0  0  0  0  0
  -10.1147  -71.1494  -20.2414 C   0  0  0  0  0  0  0  0  0  0  0  0
  -10.4465  -71.8927  -19.1257 C   0  0  0  0  0  0  0  0  0  0  0  0
   -9.3912  -72.3902  -18.3950 C   0  0  0  0  0  0  0  0  0  0  0  0
   -8.0998  -72.1722  -18.7011 N   0  0  0  0  0  0  0  0  0  0  0  0
   -7.8770  -71.4620  -19.8140 C   0  0  0  0  0  0  0  0  0  0  0  0
   -8.8216  -70.9356  -20.6055 N   0  0  0  0  0  0  0  0  0  0  0  0
  1  2  1  0
  2  3  1  0
  2  4  1  0
  2  5  1  0
  5  6  2  0
  5  7  1  0
  7  8  1  6
  7  9  1  0
  9 10  2  0
 10 11  1  0
 11 12  2  0
 12 13  1  0
 13 14  2  0
 14  9  1  0
M  END
>  <SLURM_JOB_NAME>  (26) 
BulkDock.place:Flavi_NS5_RdRp:RdRp_knitwork_thumb_site_2_impure_split4000_batch001

>  <fragmenstein_error>  (26) 
['']

>  <HIPPO Compound ID>  (26) 
2536

>  <alias>  (26) 
None

>  <energy_score>  (26) 
-302.365833

>  <exports>  (26) 
['/opt/xchem-fragalysis-2/maxwin/BulkDock/OUTPUTS/RdRp_knitwork_thumb_site_2_impure_split4000_batch001_211014.sdf']

>  <fragmenstein_outcome>  (26) 
['acceptable']

>  <fragmenstein_mode>  (26) 
['expansion']

>  <HIPPO Pose ID>  (26) 
44150

>  <name>  (26) 
UXYWKDFBHZSKRC-MRVPVSSYSA-N

>  <fragmenstein_runtime>  (26) 
[6.789217710494995]

>  <csv_name>  (26) 
RdRp_knitwork_thumb_site_2_impure_split4000_batch001.csv

>  <inchikey>  (26) 
UXYWKDFBHZSKRC-MRVPVSSYSA-N

>  <original SMILES>  (26) 
CC(C)(C)C(=O)[C@H](O)c1ccncn1

>  <scratch_subdir>  (26) 
['/opt/xchem-fragalysis-2/maxwin/BulkDock/SCRATCH/211014/C2536-P48']

>  <tags>  (26) 
['Fragmenstein placed']

>  <distance_score>  (26) 
0.879358

>  <original ID>  (26) 
UXYWKDFBHZSKRC-MRVPVSSYSA-N

>  <ref_mols>  (26) 
d0174a,d0587a

>  <SLURM_JOB_ID>  (26) 
211014

>  <ref_pdb>  (26) 
d0587a

$$$$
44163
     RDKit          3D

 14 14  0  0  0  0  0  0  0  0999 V2000
  -13.7346  -69.2939  -22.8778 C   0  0  0  0  0  0  0  0  0  0  0  0
  -14.4948  -69.7003  -21.6129 C   0  0  0  0  0  0  0  0  0  0  0  0
  -15.0324  -68.4329  -20.9487 C   0  0  0  0  0  0  0  0  0  0  0  0
  -15.6544  -70.6204  -21.9985 C   0  0  0  0  0  0  0  0  0  0  0  0
  -13.7169  -70.3343  -20.5797 O   0  0  0  0  0  0  0  0  0  0  0  0
  -12.6325  -71.1870  -20.9889 C   0  0  0  0  0  0  0  0  0  0  0  0
  -11.3043  -70.4029  -20.9250 C   0  0  2  0  0  0  0  0  0  0  0  0
  -10.7543  -70.2392  -22.2426 O   0  0  0  0  0  0  0  0  0  0  0  0
  -10.2267  -70.9631  -20.0175 C   0  0  0  0  0  0  0  0  0  0  0  0
  -10.4960  -71.3652  -18.7245 C   0  0  0  0  0  0  0  0  0  0  0  0
   -9.4128  -71.7663  -17.9767 C   0  0  0  0  0  0  0  0  0  0  0  0
   -8.1470  -71.7541  -18.4286 N   0  0  0  0  0  0  0  0  0  0  0  0
   -7.9825  -71.3377  -19.6917 C   0  0  0  0  0  0  0  0  0  0  0  0
   -8.9624  -70.9404  -20.5174 N   0  0  0  0  0  0  0  0  0  0  0  0
  1  2  1  0
  2  3  1  0
  2  4  1  0
  2  5  1  0
  5  6  1  0
  6  7  1  0
  7  8  1  6
  7  9  1  0
  9 10  2  0
 10 11  1  0
 11 12  2  0
 12 13  1  0
 13 14  2  0
 14  9  1  0
M  END
>  <SLURM_JOB_NAME>  (27) 
BulkDock.place:Flavi_NS5_RdRp:RdRp_knitwork_thumb_site_2_impure_split4000_batch001

>  <fragmenstein_error>  (27) 
['']

>  <HIPPO Compound ID>  (27) 
2600

>  <alias>  (27) 
None

>  <energy_score>  (27) 
-21.303882

>  <exports>  (27) 
['/opt/xchem-fragalysis-2/maxwin/BulkDock/OUTPUTS/RdRp_knitwork_thumb_site_2_impure_split4000_batch001_211014.sdf']

>  <fragmenstein_outcome>  (27) 
['acceptable']

>  <fragmenstein_mode>  (27) 
['expansion']

>  <HIPPO Pose ID>  (27) 
44163

>  <name>  (27) 
OKWGWXMSAAOBHL-VIFPVBQESA-N

>  <fragmenstein_runtime>  (27) 
[4.662421226501465]

>  <csv_name>  (27) 
RdRp_knitwork_thumb_site_2_impure_split4000_batch001.csv

>  <inchikey>  (27) 
OKWGWXMSAAOBHL-VIFPVBQESA-N

>  <original SMILES>  (27) 
CC(C)(C)OC[C@H](O)c1ccncn1

>  <scratch_subdir>  (27) 
['/opt/xchem-fragalysis-2/maxwin/BulkDock/SCRATCH/211014/C2600-P17']

>  <tags>  (27) 
['Fragmenstein placed']

>  <distance_score>  (27) 
0.724346

>  <original ID>  (27) 
OKWGWXMSAAOBHL-VIFPVBQESA-N

>  <ref_mols>  (27) 
d0174a,d0587a

>  <SLURM_JOB_ID>  (27) 
211014

>  <ref_pdb>  (27) 
d0174a

$$$$
44164
     RDKit          3D

 14 14  0  0  0  0  0  0  0  0999 V2000
  -13.7331  -69.3116  -22.7019 C   0  0  0  0  0  0  0  0  0  0  0  0
  -14.5021  -69.8571  -21.5000 C   0  0  0  0  0  0  0  0  0  0  0  0
  -15.2112  -68.6949  -20.8025 C   0  0  0  0  0  0  0  0  0  0  0  0
  -15.5343  -70.8765  -21.9879 C   0  0  0  0  0  0  0  0  0  0  0  0
  -13.6831  -70.4483  -20.4758 O   0  0  0  0  0  0  0  0  0  0  0  0
  -12.5694  -71.2501  -20.9122 C   0  0  0  0  0  0  0  0  0  0  0  0
  -11.2734  -70.4137  -20.8618 C   0  0  2  0  0  0  0  0  0  0  0  0
  -10.7277  -70.2429  -22.1809 O   0  0  0  0  0  0  0  0  0  0  0  0
  -10.1821  -70.9415  -19.9521 C   0  0  0  0  0  0  0  0  0  0  0  0
  -10.4402  -71.3058  -18.6456 C   0  0  0  0  0  0  0  0  0  0  0  0
   -9.3520  -71.6953  -17.9000 C   0  0  0  0  0  0  0  0  0  0  0  0
   -8.0913  -71.7043  -18.3668 N   0  0  0  0  0  0  0  0  0  0  0  0
   -7.9390  -71.3251  -19.6433 C   0  0  0  0  0  0  0  0  0  0  0  0
   -8.9247  -70.9433  -20.4691 N   0  0  0  0  0  0  0  0  0  0  0  0
  1  2  1  0
  2  3  1  0
  2  4  1  0
  2  5  1  0
  5  6  1  0
  6  7  1  0
  7  8  1  6
  7  9  1  0
  9 10  2  0
 10 11  1  0
 11 12  2  0
 12 13  1  0
 13 14  2  0
 14  9  1  0
M  END
>  <SLURM_JOB_NAME>  (28) 
BulkDock.place:Flavi_NS5_RdRp:RdRp_knitwork_thumb_site_2_impure_split4000_batch001

>  <fragmenstein_error>  (28) 
['']

>  <HIPPO Compound ID>  (28) 
2600

>  <alias>  (28) 
None

>  <energy_score>  (28) 
-22.401137

>  <exports>  (28) 
['/opt/xchem-fragalysis-2/maxwin/BulkDock/OUTPUTS/RdRp_knitwork_thumb_site_2_impure_split4000_batch001_211014.sdf']

>  <fragmenstein_outcome>  (28) 
['acceptable']

>  <fragmenstein_mode>  (28) 
['expansion']

>  <HIPPO Pose ID>  (28) 
44164

>  <name>  (28) 
OKWGWXMSAAOBHL-VIFPVBQESA-N

>  <fragmenstein_runtime>  (28) 
[4.445181369781494]

>  <csv_name>  (28) 
RdRp_knitwork_thumb_site_2_impure_split4000_batch001.csv

>  <inchikey>  (28) 
OKWGWXMSAAOBHL-VIFPVBQESA-N

>  <original SMILES>  (28) 
CC(C)(C)OC[C@H](O)c1ccncn1

>  <scratch_subdir>  (28) 
['/opt/xchem-fragalysis-2/maxwin/BulkDock/SCRATCH/211014/C2600-P48']

>  <tags>  (28) 
['Fragmenstein placed']

>  <distance_score>  (28) 
0.747604

>  <original ID>  (28) 
OKWGWXMSAAOBHL-VIFPVBQESA-N

>  <ref_mols>  (28) 
d0174a,d0587a

>  <SLURM_JOB_ID>  (28) 
211014

>  <ref_pdb>  (28) 
d0587a

$$$$
44199
     RDKit          3D

 15 15  0  0  0  0  0  0  0  0999 V2000
  -13.1967  -69.3694  -24.6216 C   0  0  0  0  0  0  0  0  0  0  0  0
  -13.9432  -69.7330  -23.7540 C   0  0  0  0  0  0  0  0  0  0  0  0
  -14.8481  -70.1813  -22.6888 C   0  0  0  0  0  0  0  0  0  0  0  0
  -14.7557  -69.3388  -21.4156 C   0  0  0  0  0  0  0  0  0  0  0  0
  -13.3541  -69.2480  -20.8105 C   0  0  0  0  0  0  0  0  0  0  0  0
  -12.7703  -70.5960  -20.4404 C   0  0  0  0  0  0  0  0  0  0  0  0
  -13.3740  -71.3086  -19.6291 O   0  0  0  0  0  0  0  0  0  0  0  0
  -11.4232  -71.0322  -21.0769 C   0  0  1  0  0  0  0  0  0  0  0  0
  -11.0152  -70.2497  -22.1905 O   0  0  0  0  0  0  0  0  0  0  0  0
  -10.2693  -71.0965  -20.1128 C   0  0  0  0  0  0  0  0  0  0  0  0
  -10.3673  -71.6307  -18.8413 C   0  0  0  0  0  0  0  0  0  0  0  0
   -9.3224  -71.7826  -17.9985 N   0  0  0  0  0  0  0  0  0  0  0  0
   -8.1266  -71.4172  -18.4824 C   0  0  0  0  0  0  0  0  0  0  0  0
   -7.8972  -70.8866  -19.6876 N   0  0  0  0  0  0  0  0  0  0  0  0
   -8.9799  -70.7398  -20.4768 C   0  0  0  0  0  0  0  0  0  0  0  0
  1  2  3  0
  2  3  1  0
  3  4  1  0
  4  5  1  0
  5  6  1  0
  6  7  2  0
  6  8  1  0
  8  9  1  6
  8 10  1  0
 10 11  2  0
 11 12  1  0
 12 13  2  0
 13 14  1  0
 14 15  2  0
 15 10  1  0
M  END
>  <SLURM_JOB_NAME>  (29) 
BulkDock.place:Flavi_NS5_RdRp:RdRp_knitwork_thumb_site_2_impure_split4000_batch001

>  <fragmenstein_error>  (29) 
['']

>  <HIPPO Compound ID>  (29) 
2605

>  <alias>  (29) 
None

>  <energy_score>  (29) 
-60.774364

>  <exports>  (29) 
['/opt/xchem-fragalysis-2/maxwin/BulkDock/OUTPUTS/RdRp_knitwork_thumb_site_2_impure_split4000_batch001_211014.sdf']

>  <fragmenstein_outcome>  (29) 
['acceptable']

>  <fragmenstein_mode>  (29) 
['expansion']

>  <HIPPO Pose ID>  (29) 
44199

>  <name>  (29) 
MPXBIRXYOALOQY-NSHDSACASA-N

>  <fragmenstein_runtime>  (29) 
[2.5405209064483643]

>  <csv_name>  (29) 
RdRp_knitwork_thumb_site_2_impure_split4000_batch001.csv

>  <inchikey>  (29) 
MPXBIRXYOALOQY-NSHDSACASA-N

>  <original SMILES>  (29) 
C#CCCCC(=O)[C@@H](O)c1cncnc1

>  <scratch_subdir>  (29) 
['/opt/xchem-fragalysis-2/maxwin/BulkDock/SCRATCH/211014/C2605-P17']

>  <tags>  (29) 
['Fragmenstein placed']

>  <distance_score>  (29) 
0.909845

>  <original ID>  (29) 
MPXBIRXYOALOQY-NSHDSACASA-N

>  <ref_mols>  (29) 
d0174a,d0587a

>  <SLURM_JOB_ID>  (29) 
211014

>  <ref_pdb>  (29) 
d0174a

$$$$
44206
     RDKit          3D

 15 15  0  0  0  0  0  0  0  0999 V2000
  -13.2412  -69.8874  -24.6474 C   0  0  0  0  0  0  0  0  0  0  0  0
  -13.9803  -70.0770  -23.7197 C   0  0  0  0  0  0  0  0  0  0  0  0
  -14.8914  -70.3192  -22.5945 C   0  0  0  0  0  0  0  0  0  0  0  0
  -14.7142  -69.3449  -21.4295 C   0  0  0  0  0  0  0  0  0  0  0  0
  -13.2893  -69.2442  -20.8834 C   0  0  0  0  0  0  0  0  0  0  0  0
  -12.7029  -70.5833  -20.4846 C   0  0  0  0  0  0  0  0  0  0  0  0
  -13.3143  -71.2940  -19.6780 O   0  0  0  0  0  0  0  0  0  0  0  0
  -11.3440  -71.0139  -21.0959 C   0  0  1  0  0  0  0  0  0  0  0  0
  -10.9135  -70.2185  -22.1936 O   0  0  0  0  0  0  0  0  0  0  0  0
  -10.2071  -71.0908  -20.1133 C   0  0  0  0  0  0  0  0  0  0  0  0
  -10.3302  -71.5993  -18.8339 C   0  0  0  0  0  0  0  0  0  0  0  0
   -9.2954  -71.7671  -17.9811 N   0  0  0  0  0  0  0  0  0  0  0  0
   -8.0860  -71.4442  -18.4614 C   0  0  0  0  0  0  0  0  0  0  0  0
   -7.8326  -70.9397  -19.6724 N   0  0  0  0  0  0  0  0  0  0  0  0
   -8.9053  -70.7758  -20.4713 C   0  0  0  0  0  0  0  0  0  0  0  0
  1  2  3  0
  2  3  1  0
  3  4  1  0
  4  5  1  0
  5  6  1  0
  6  7  2  0
  6  8  1  0
  8  9  1  6
  8 10  1  0
 10 11  2  0
 11 12  1  0
 12 13  2  0
 13 14  1  0
 14 15  2  0
 15 10  1  0
M  END
>  <SLURM_JOB_NAME>  (30) 
BulkDock.place:Flavi_NS5_RdRp:RdRp_knitwork_thumb_site_2_impure_split4000_batch001

>  <fragmenstein_error>  (30) 
['']

>  <HIPPO Compound ID>  (30) 
2605

>  <alias>  (30) 
None

>  <energy_score>  (30) 
-60.559617

>  <exports>  (30) 
['/opt/xchem-fragalysis-2/maxwin/BulkDock/OUTPUTS/RdRp_knitwork_thumb_site_2_impure_split4000_batch001_211014.sdf']

>  <fragmenstein_outcome>  (30) 
['acceptable']

>  <fragmenstein_mode>  (30) 
['expansion']

>  <HIPPO Pose ID>  (30) 
44206

>  <name>  (30) 
MPXBIRXYOALOQY-NSHDSACASA-N

>  <fragmenstein_runtime>  (30) 
[2.588992118835449]

>  <csv_name>  (30) 
RdRp_knitwork_thumb_site_2_impure_split4000_batch001.csv

>  <inchikey>  (30) 
MPXBIRXYOALOQY-NSHDSACASA-N

>  <original SMILES>  (30) 
C#CCCCC(=O)[C@@H](O)c1cncnc1

>  <scratch_subdir>  (30) 
['/opt/xchem-fragalysis-2/maxwin/BulkDock/SCRATCH/211014/C2605-P48']

>  <tags>  (30) 
['Fragmenstein placed']

>  <distance_score>  (30) 
0.948926

>  <original ID>  (30) 
MPXBIRXYOALOQY-NSHDSACASA-N

>  <ref_mols>  (30) 
d0174a,d0587a

>  <SLURM_JOB_ID>  (30) 
211014

>  <ref_pdb>  (30) 
d0587a

$$$$
44211
     RDKit          3D

 13 13  0  0  0  0  0  0  0  0999 V2000
  -14.8940  -69.5040  -20.9080 C   0  0  0  0  0  0  0  0  0  0  0  0
  -13.4307  -69.6840  -20.5124 C   0  0  0  0  0  0  0  0  0  0  0  0
  -12.7170  -70.8524  -21.2188 C   0  0  1  0  0  0  0  0  0  0  0  0
  -13.0755  -72.2168  -20.6373 C   0  0  0  0  0  0  0  0  0  0  0  0
  -13.1817  -70.8956  -22.5853 O   0  0  0  0  0  0  0  0  0  0  0  0
  -11.1982  -70.5829  -21.3367 C   0  0  0  0  0  0  0  0  0  0  0  0
  -10.7418  -70.0385  -22.3481 O   0  0  0  0  0  0  0  0  0  0  0  0
  -10.2240  -70.9263  -20.2866 C   0  0  0  0  0  0  0  0  0  0  0  0
  -10.4930  -71.0886  -18.9474 C   0  0  0  0  0  0  0  0  0  0  0  0
   -9.5536  -71.4082  -18.0248 N   0  0  0  0  0  0  0  0  0  0  0  0
   -8.3002  -71.5511  -18.4906 C   0  0  0  0  0  0  0  0  0  0  0  0
   -7.9136  -71.3779  -19.7598 N   0  0  0  0  0  0  0  0  0  0  0  0
   -8.8930  -71.0639  -20.6352 C   0  0  0  0  0  0  0  0  0  0  0  0
  1  2  1  0
  2  3  1  0
  3  4  1  1
  3  5  1  0
  3  6  1  0
  6  7  2  0
  6  8  1  0
  8  9  2  0
  9 10  1  0
 10 11  2  0
 11 12  1  0
 12 13  2  0
 13  8  1  0
M  END
>  <SLURM_JOB_NAME>  (31) 
BulkDock.place:Flavi_NS5_RdRp:RdRp_knitwork_thumb_site_2_impure_split4000_batch001

>  <fragmenstein_error>  (31) 
['']

>  <HIPPO Compound ID>  (31) 
2609

>  <alias>  (31) 
None

>  <energy_score>  (31) 
-36.75878

>  <exports>  (31) 
['/opt/xchem-fragalysis-2/maxwin/BulkDock/OUTPUTS/RdRp_knitwork_thumb_site_2_impure_split4000_batch001_211014.sdf']

>  <fragmenstein_outcome>  (31) 
['acceptable']

>  <fragmenstein_mode>  (31) 
['expansion']

>  <HIPPO Pose ID>  (31) 
44211

>  <name>  (31) 
QDQALGAAAAPFNS-SECBINFHSA-N

>  <fragmenstein_runtime>  (31) 
[2.3615775108337402]

>  <csv_name>  (31) 
RdRp_knitwork_thumb_site_2_impure_split4000_batch001.csv

>  <inchikey>  (31) 
QDQALGAAAAPFNS-SECBINFHSA-N

>  <original SMILES>  (31) 
CC[C@@](C)(O)C(=O)c1cncnc1

>  <scratch_subdir>  (31) 
['/opt/xchem-fragalysis-2/maxwin/BulkDock/SCRATCH/211014/C2609-P17']

>  <tags>  (31) 
['Fragmenstein placed']

>  <distance_score>  (31) 
0.747748

>  <original ID>  (31) 
QDQALGAAAAPFNS-SECBINFHSA-N

>  <ref_mols>  (31) 
d0174a,d0587a

>  <SLURM_JOB_ID>  (31) 
211014

>  <ref_pdb>  (31) 
d0174a

$$$$
44214
     RDKit          3D

 13 13  0  0  0  0  0  0  0  0999 V2000
  -14.9115  -69.4923  -20.8613 C   0  0  0  0  0  0  0  0  0  0  0  0
  -13.4303  -69.6289  -20.5161 C   0  0  0  0  0  0  0  0  0  0  0  0
  -12.7220  -70.8116  -21.2031 C   0  0  1  0  0  0  0  0  0  0  0  0
  -13.0863  -72.1656  -20.6022 C   0  0  0  0  0  0  0  0  0  0  0  0
  -13.1873  -70.8673  -22.5700 O   0  0  0  0  0  0  0  0  0  0  0  0
  -11.2023  -70.5480  -21.3263 C   0  0  0  0  0  0  0  0  0  0  0  0
  -10.7485  -69.9965  -22.3354 O   0  0  0  0  0  0  0  0  0  0  0  0
  -10.2232  -70.9080  -20.2868 C   0  0  0  0  0  0  0  0  0  0  0  0
  -10.4792  -71.0603  -18.9440 C   0  0  0  0  0  0  0  0  0  0  0  0
   -9.5344  -71.3975  -18.0331 N   0  0  0  0  0  0  0  0  0  0  0  0
   -8.2905  -71.5696  -18.5141 C   0  0  0  0  0  0  0  0  0  0  0  0
   -7.9163  -71.4078  -19.7886 N   0  0  0  0  0  0  0  0  0  0  0  0
   -8.8997  -71.0740  -20.6519 C   0  0  0  0  0  0  0  0  0  0  0  0
  1  2  1  0
  2  3  1  0
  3  4  1  1
  3  5  1  0
  3  6  1  0
  6  7  2  0
  6  8  1  0
  8  9  2  0
  9 10  1  0
 10 11  2  0
 11 12  1  0
 12 13  2  0
 13  8  1  0
M  END
>  <SLURM_JOB_NAME>  (32) 
BulkDock.place:Flavi_NS5_RdRp:RdRp_knitwork_thumb_site_2_impure_split4000_batch001

>  <fragmenstein_error>  (32) 
['']

>  <HIPPO Compound ID>  (32) 
2609

>  <alias>  (32) 
None

>  <energy_score>  (32) 
-36.90602

>  <exports>  (32) 
['/opt/xchem-fragalysis-2/maxwin/BulkDock/OUTPUTS/RdRp_knitwork_thumb_site_2_impure_split4000_batch001_211014.sdf']

>  <fragmenstein_outcome>  (32) 
['acceptable']

>  <fragmenstein_mode>  (32) 
['expansion']

>  <HIPPO Pose ID>  (32) 
44214

>  <name>  (32) 
QDQALGAAAAPFNS-SECBINFHSA-N

>  <fragmenstein_runtime>  (32) 
[2.105621576309204]

>  <csv_name>  (32) 
RdRp_knitwork_thumb_site_2_impure_split4000_batch001.csv

>  <inchikey>  (32) 
QDQALGAAAAPFNS-SECBINFHSA-N

>  <original SMILES>  (32) 
CC[C@@](C)(O)C(=O)c1cncnc1

>  <scratch_subdir>  (32) 
['/opt/xchem-fragalysis-2/maxwin/BulkDock/SCRATCH/211014/C2609-P48']

>  <tags>  (32) 
['Fragmenstein placed']

>  <distance_score>  (32) 
0.758353

>  <original ID>  (32) 
QDQALGAAAAPFNS-SECBINFHSA-N

>  <ref_mols>  (32) 
d0174a,d0587a

>  <SLURM_JOB_ID>  (32) 
211014

>  <ref_pdb>  (32) 
d0587a

$$$$
44215
     RDKit          3D

 13 13  0  0  0  0  0  0  0  0999 V2000
  -14.7547  -69.5391  -22.9601 C   0  0  0  0  0  0  0  0  0  0  0  0
  -14.6557  -70.0451  -21.7244 C   0  0  0  0  0  0  0  0  0  0  0  0
  -13.7125  -69.5219  -20.6889 C   0  0  0  0  0  0  0  0  0  0  0  0
  -12.6750  -70.5715  -20.2951 C   0  0  0  0  0  0  0  0  0  0  0  0
  -13.0126  -71.5712  -19.6561 O   0  0  0  0  0  0  0  0  0  0  0  0
  -11.2125  -70.2285  -20.6411 C   0  0  2  0  0  0  0  0  0  0  0  0
  -10.9511  -70.1633  -22.0324 O   0  0  0  0  0  0  0  0  0  0  0  0
  -10.1460  -71.0013  -19.9205 C   0  0  0  0  0  0  0  0  0  0  0  0
  -10.1493  -71.1329  -18.5431 C   0  0  0  0  0  0  0  0  0  0  0  0
   -9.1319  -71.6521  -17.8266 N   0  0  0  0  0  0  0  0  0  0  0  0
   -8.0793  -72.0738  -18.5432 C   0  0  0  0  0  0  0  0  0  0  0  0
   -7.9569  -72.0047  -19.8747 N   0  0  0  0  0  0  0  0  0  0  0  0
   -9.0064  -71.4820  -20.5365 C   0  0  0  0  0  0  0  0  0  0  0  0
  1  2  2  0
  2  3  1  0
  3  4  1  0
  4  5  2  0
  4  6  1  0
  6  7  1  6
  6  8  1  0
  8  9  2  0
  9 10  1  0
 10 11  2  0
 11 12  1  0
 12 13  2  0
 13  8  1  0
M  END
>  <SLURM_JOB_NAME>  (33) 
BulkDock.place:Flavi_NS5_RdRp:RdRp_knitwork_thumb_site_2_impure_split4000_batch001

>  <fragmenstein_error>  (33) 
['']

>  <HIPPO Compound ID>  (33) 
2611

>  <alias>  (33) 
None

>  <energy_score>  (33) 
-119.305307

>  <exports>  (33) 
['/opt/xchem-fragalysis-2/maxwin/BulkDock/OUTPUTS/RdRp_knitwork_thumb_site_2_impure_split4000_batch001_211014.sdf']

>  <fragmenstein_outcome>  (33) 
['acceptable']

>  <fragmenstein_mode>  (33) 
['expansion']

>  <HIPPO Pose ID>  (33) 
44215

>  <name>  (33) 
BLRDJEQFNHMHCN-SECBINFHSA-N

>  <fragmenstein_runtime>  (33) 
[2.1420722007751465]

>  <csv_name>  (33) 
RdRp_knitwork_thumb_site_2_impure_split4000_batch001.csv

>  <inchikey>  (33) 
BLRDJEQFNHMHCN-SECBINFHSA-N

>  <original SMILES>  (33) 
C=CCC(=O)[C@H](O)c1cncnc1

>  <scratch_subdir>  (33) 
['/opt/xchem-fragalysis-2/maxwin/BulkDock/SCRATCH/211014/C2611-P17']

>  <tags>  (33) 
['Fragmenstein placed']

>  <distance_score>  (33) 
0.792085

>  <original ID>  (33) 
BLRDJEQFNHMHCN-SECBINFHSA-N

>  <ref_mols>  (33) 
d0174a,d0587a

>  <SLURM_JOB_ID>  (33) 
211014

>  <ref_pdb>  (33) 
d0174a

$$$$
44217
     RDKit          3D

 13 13  0  0  0  0  0  0  0  0999 V2000
  -14.7347  -69.7874  -22.9446 C   0  0  0  0  0  0  0  0  0  0  0  0
  -14.6904  -70.1405  -21.6544 C   0  0  0  0  0  0  0  0  0  0  0  0
  -13.6757  -69.6088  -20.6936 C   0  0  0  0  0  0  0  0  0  0  0  0
  -12.6231  -70.6630  -20.3525 C   0  0  0  0  0  0  0  0  0  0  0  0
  -12.9406  -71.7277  -19.8190 O   0  0  0  0  0  0  0  0  0  0  0  0
  -11.1660  -70.2385  -20.6028 C   0  0  2  0  0  0  0  0  0  0  0  0
  -10.8374  -70.0436  -21.9690 O   0  0  0  0  0  0  0  0  0  0  0  0
  -10.1081  -71.0242  -19.8868 C   0  0  0  0  0  0  0  0  0  0  0  0
  -10.0656  -71.0727  -18.5047 C   0  0  0  0  0  0  0  0  0  0  0  0
   -9.0533  -71.6103  -17.7962 N   0  0  0  0  0  0  0  0  0  0  0  0
   -8.0610  -72.1431  -18.5253 C   0  0  0  0  0  0  0  0  0  0  0  0
   -7.9958  -72.1724  -19.8632 N   0  0  0  0  0  0  0  0  0  0  0  0
   -9.0391  -71.6288  -20.5166 C   0  0  0  0  0  0  0  0  0  0  0  0
  1  2  2  0
  2  3  1  0
  3  4  1  0
  4  5  2  0
  4  6  1  0
  6  7  1  6
  6  8  1  0
  8  9  2  0
  9 10  1  0
 10 11  2  0
 11 12  1  0
 12 13  2  0
 13  8  1  0
M  END
>  <SLURM_JOB_NAME>  (34) 
BulkDock.place:Flavi_NS5_RdRp:RdRp_knitwork_thumb_site_2_impure_split4000_batch001

>  <fragmenstein_error>  (34) 
['']

>  <HIPPO Compound ID>  (34) 
2611

>  <alias>  (34) 
None

>  <energy_score>  (34) 
-119.485257

>  <exports>  (34) 
['/opt/xchem-fragalysis-2/maxwin/BulkDock/OUTPUTS/RdRp_knitwork_thumb_site_2_impure_split4000_batch001_211014.sdf']

>  <fragmenstein_outcome>  (34) 
['acceptable']

>  <fragmenstein_mode>  (34) 
['expansion']

>  <HIPPO Pose ID>  (34) 
44217

>  <name>  (34) 
BLRDJEQFNHMHCN-SECBINFHSA-N

>  <fragmenstein_runtime>  (34) 
[2.118255615234375]

>  <csv_name>  (34) 
RdRp_knitwork_thumb_site_2_impure_split4000_batch001.csv

>  <inchikey>  (34) 
BLRDJEQFNHMHCN-SECBINFHSA-N

>  <original SMILES>  (34) 
C=CCC(=O)[C@H](O)c1cncnc1

>  <scratch_subdir>  (34) 
['/opt/xchem-fragalysis-2/maxwin/BulkDock/SCRATCH/211014/C2611-P48']

>  <tags>  (34) 
['Fragmenstein placed']

>  <distance_score>  (34) 
0.828733

>  <original ID>  (34) 
BLRDJEQFNHMHCN-SECBINFHSA-N

>  <ref_mols>  (34) 
d0174a,d0587a

>  <SLURM_JOB_ID>  (34) 
211014

>  <ref_pdb>  (34) 
d0587a

$$$$
44229
     RDKit          3D

 19 19  0  0  0  0  0  0  0  0999 V2000
  -12.4682  -69.5756  -25.2503 C   0  0  0  0  0  0  0  0  0  0  0  0
  -13.5342  -70.1418  -24.3244 C   0  0  0  0  0  0  0  0  0  0  0  0
  -13.7293  -69.2939  -23.0636 C   0  0  0  0  0  0  0  0  0  0  0  0
  -14.3728  -69.9823  -21.9064 N   0  0  0  0  0  0  0  0  0  0  0  0
  -15.2293  -71.1594  -22.1726 C   0  0  0  0  0  0  0  0  0  0  0  0
  -16.6791  -70.7457  -22.3888 C   0  0  0  0  0  0  0  0  0  0  0  0
  -16.9680  -70.0540  -23.7068 C   0  0  0  0  0  0  0  0  0  0  0  0
  -13.5572  -69.9248  -20.4263 S   0  0  0  0  0  0  0  0  0  0  0  0
  -14.4182  -70.4079  -19.3694 O   0  0  0  0  0  0  0  0  0  0  0  0
  -12.8915  -68.6559  -20.2941 O   0  0  0  0  0  0  0  0  0  0  0  0
  -12.4281  -71.1250  -20.6981 N   0  0  0  0  0  0  0  0  0  0  0  0
  -11.0656  -70.6935  -21.1517 C   0  0  2  0  0  0  0  0  0  0  0  0
  -10.6346  -71.5632  -22.3251 C   0  0  0  0  0  0  0  0  0  0  0  0
  -10.0002  -70.8669  -20.0747 C   0  0  0  0  0  0  0  0  0  0  0  0
  -10.3371  -71.5852  -18.9766 N   0  0  0  0  0  0  0  0  0  0  0  0
   -9.3213  -71.9206  -18.1592 C   0  0  0  0  0  0  0  0  0  0  0  0
   -8.0095  -71.5773  -18.3915 C   0  0  0  0  0  0  0  0  0  0  0  0
   -7.7768  -70.8340  -19.5231 C   0  0  0  0  0  0  0  0  0  0  0  0
   -8.7492  -70.4594  -20.3703 N   0  0  0  0  0  0  0  0  0  0  0  0
  1  2  1  0
  2  3  1  0
  3  4  1  0
  4  5  1  0
  5  6  1  0
  6  7  1  0
  4  8  1  0
  8  9  2  0
  8 10  2  0
  8 11  1  0
 11 12  1  0
 12 13  1  6
 12 14  1  0
 14 15  2  0
 15 16  1  0
 16 17  2  0
 17 18  1  0
 18 19  2  0
 19 14  1  0
M  END
>  <SLURM_JOB_NAME>  (35) 
BulkDock.place:Flavi_NS5_RdRp:RdRp_knitwork_thumb_site_2_impure_split4000_batch001

>  <fragmenstein_error>  (35) 
['']

>  <HIPPO Compound ID>  (35) 
2614

>  <alias>  (35) 
None

>  <energy_score>  (35) 
-53.773376

>  <exports>  (35) 
['/opt/xchem-fragalysis-2/maxwin/BulkDock/OUTPUTS/RdRp_knitwork_thumb_site_2_impure_split4000_batch001_211014.sdf']

>  <fragmenstein_outcome>  (35) 
['acceptable']

>  <fragmenstein_mode>  (35) 
['expansion']

>  <HIPPO Pose ID>  (35) 
44229

>  <name>  (35) 
YYFRZIUNWLKYKD-LLVKDONJSA-N

>  <fragmenstein_runtime>  (35) 
[9.833853721618652]

>  <csv_name>  (35) 
RdRp_knitwork_thumb_site_2_impure_split4000_batch001.csv

>  <inchikey>  (35) 
YYFRZIUNWLKYKD-LLVKDONJSA-N

>  <original SMILES>  (35) 
CCCN(CCC)S(=O)(=O)N[C@H](C)c1ncccn1

>  <scratch_subdir>  (35) 
['/opt/xchem-fragalysis-2/maxwin/BulkDock/SCRATCH/211014/C2614-P17']

>  <tags>  (35) 
['Fragmenstein placed']

>  <distance_score>  (35) 
0.813982

>  <original ID>  (35) 
YYFRZIUNWLKYKD-LLVKDONJSA-N

>  <ref_mols>  (35) 
d0174a,d0587a

>  <SLURM_JOB_ID>  (35) 
211014

>  <ref_pdb>  (35) 
d0174a

$$$$
44235
     RDKit          3D

 11 11  0  0  0  0  0  0  0  0999 V2000
  -14.2125  -69.1982  -21.0845 C   0  0  0  0  0  0  0  0  0  0  0  0
  -13.3951  -70.0145  -20.2455 O   0  0  0  0  0  0  0  0  0  0  0  0
  -12.9020  -71.1781  -20.9210 C   0  0  0  0  0  0  0  0  0  0  0  0
  -11.4177  -71.0892  -21.3655 C   0  0  1  0  0  0  0  0  0  0  0  0
  -11.1849  -69.9858  -22.2391 O   0  0  0  0  0  0  0  0  0  0  0  0
  -10.3458  -71.0798  -20.3167 C   0  0  0  0  0  0  0  0  0  0  0  0
  -10.5442  -71.2518  -18.9624 C   0  0  0  0  0  0  0  0  0  0  0  0
   -9.5450  -71.3689  -18.0581 N   0  0  0  0  0  0  0  0  0  0  0  0
   -8.3003  -71.2979  -18.5565 C   0  0  0  0  0  0  0  0  0  0  0  0
   -7.9748  -71.0948  -19.8371 N   0  0  0  0  0  0  0  0  0  0  0  0
   -9.0134  -70.9856  -20.6879 C   0  0  0  0  0  0  0  0  0  0  0  0
  1  2  1  0
  2  3  1  0
  3  4  1  0
  4  5  1  1
  4  6  1  0
  6  7  2  0
  7  8  1  0
  8  9  2  0
  9 10  1  0
 10 11  2  0
 11  6  1  0
M  END
>  <SLURM_JOB_NAME>  (36) 
BulkDock.place:Flavi_NS5_RdRp:RdRp_knitwork_thumb_site_2_impure_split4000_batch001

>  <fragmenstein_error>  (36) 
['']

>  <HIPPO Compound ID>  (36) 
2615

>  <alias>  (36) 
None

>  <energy_score>  (36) 
-10.332225

>  <exports>  (36) 
['/opt/xchem-fragalysis-2/maxwin/BulkDock/OUTPUTS/RdRp_knitwork_thumb_site_2_impure_split4000_batch001_211014.sdf']

>  <fragmenstein_outcome>  (36) 
['acceptable']

>  <fragmenstein_mode>  (36) 
['expansion']

>  <HIPPO Pose ID>  (36) 
44235

>  <name>  (36) 
OIBACTDWDFTDCG-SSDOTTSWSA-N

>  <fragmenstein_runtime>  (36) 
[1.9105892181396484]

>  <csv_name>  (36) 
RdRp_knitwork_thumb_site_2_impure_split4000_batch001.csv

>  <inchikey>  (36) 
OIBACTDWDFTDCG-SSDOTTSWSA-N

>  <original SMILES>  (36) 
COC[C@@H](O)c1cncnc1

>  <scratch_subdir>  (36) 
['/opt/xchem-fragalysis-2/maxwin/BulkDock/SCRATCH/211014/C2615-P17']

>  <tags>  (36) 
['Fragmenstein placed']

>  <distance_score>  (36) 
0.850457

>  <original ID>  (36) 
OIBACTDWDFTDCG-SSDOTTSWSA-N

>  <ref_mols>  (36) 
d0174a,d0587a

>  <SLURM_JOB_ID>  (36) 
211014

>  <ref_pdb>  (36) 
d0174a

$$$$
44237
     RDKit          3D

 11 11  0  0  0  0  0  0  0  0999 V2000
  -14.2200  -69.1673  -21.0961 C   0  0  0  0  0  0  0  0  0  0  0  0
  -13.3693  -69.9620  -20.2703 O   0  0  0  0  0  0  0  0  0  0  0  0
  -12.8821  -71.1299  -20.9415 C   0  0  0  0  0  0  0  0  0  0  0  0
  -11.3993  -71.0429  -21.3910 C   0  0  1  0  0  0  0  0  0  0  0  0
  -11.1591  -69.9281  -22.2488 O   0  0  0  0  0  0  0  0  0  0  0  0
  -10.3226  -71.0579  -20.3474 C   0  0  0  0  0  0  0  0  0  0  0  0
  -10.5168  -71.2021  -18.9894 C   0  0  0  0  0  0  0  0  0  0  0  0
   -9.5143  -71.3393  -18.0909 N   0  0  0  0  0  0  0  0  0  0  0  0
   -8.2717  -71.3152  -18.5988 C   0  0  0  0  0  0  0  0  0  0  0  0
   -7.9494  -71.1415  -19.8845 N   0  0  0  0  0  0  0  0  0  0  0  0
   -8.9906  -71.0103  -20.7288 C   0  0  0  0  0  0  0  0  0  0  0  0
  1  2  1  0
  2  3  1  0
  3  4  1  0
  4  5  1  1
  4  6  1  0
  6  7  2  0
  7  8  1  0
  8  9  2  0
  9 10  1  0
 10 11  2  0
 11  6  1  0
M  END
>  <SLURM_JOB_NAME>  (37) 
BulkDock.place:Flavi_NS5_RdRp:RdRp_knitwork_thumb_site_2_impure_split4000_batch001

>  <fragmenstein_error>  (37) 
['']

>  <HIPPO Compound ID>  (37) 
2615

>  <alias>  (37) 
None

>  <energy_score>  (37) 
-10.271981

>  <exports>  (37) 
['/opt/xchem-fragalysis-2/maxwin/BulkDock/OUTPUTS/RdRp_knitwork_thumb_site_2_impure_split4000_batch001_211014.sdf']

>  <fragmenstein_outcome>  (37) 
['acceptable']

>  <fragmenstein_mode>  (37) 
['expansion']

>  <HIPPO Pose ID>  (37) 
44237

>  <name>  (37) 
OIBACTDWDFTDCG-SSDOTTSWSA-N

>  <fragmenstein_runtime>  (37) 
[1.914046049118042]

>  <csv_name>  (37) 
RdRp_knitwork_thumb_site_2_impure_split4000_batch001.csv

>  <inchikey>  (37) 
OIBACTDWDFTDCG-SSDOTTSWSA-N

>  <original SMILES>  (37) 
COC[C@@H](O)c1cncnc1

>  <scratch_subdir>  (37) 
['/opt/xchem-fragalysis-2/maxwin/BulkDock/SCRATCH/211014/C2615-P48']

>  <tags>  (37) 
['Fragmenstein placed']

>  <distance_score>  (37) 
0.831835

>  <original ID>  (37) 
OIBACTDWDFTDCG-SSDOTTSWSA-N

>  <ref_mols>  (37) 
d0174a,d0587a

>  <SLURM_JOB_ID>  (37) 
211014

>  <ref_pdb>  (37) 
d0587a

$$$$
44245
     RDKit          3D

 14 14  0  0  0  0  0  0  0  0999 V2000
  -14.8374  -69.0483  -22.5735 C   0  0  0  0  0  0  0  0  0  0  0  0
  -14.8147  -69.7375  -21.3250 O   0  0  0  0  0  0  0  0  0  0  0  0
  -13.5336  -69.6351  -20.6859 C   0  0  0  0  0  0  0  0  0  0  0  0
  -12.7439  -70.9743  -20.7103 C   0  0  2  0  0  0  0  0  0  0  0  0
  -13.2204  -71.9328  -21.8167 C   0  0  0  0  0  0  0  0  0  0  0  0
  -12.9833  -71.6341  -19.4638 O   0  0  0  0  0  0  0  0  0  0  0  0
  -11.2639  -70.6341  -21.0338 C   0  0  0  0  0  0  0  0  0  0  0  0
  -10.9331  -70.1147  -22.1027 O   0  0  0  0  0  0  0  0  0  0  0  0
  -10.1671  -70.9430  -20.1003 C   0  0  0  0  0  0  0  0  0  0  0  0
  -10.2727  -71.0471  -18.7316 C   0  0  0  0  0  0  0  0  0  0  0  0
   -9.2279  -71.3361  -17.9174 N   0  0  0  0  0  0  0  0  0  0  0  0
   -8.0412  -71.5053  -18.5258 C   0  0  0  0  0  0  0  0  0  0  0  0
   -7.8114  -71.3879  -19.8394 N   0  0  0  0  0  0  0  0  0  0  0  0
   -8.8884  -71.1012  -20.6018 C   0  0  0  0  0  0  0  0  0  0  0  0
  1  2  1  0
  2  3  1  0
  3  4  1  0
  4  5  1  6
  4  6  1  0
  4  7  1  0
  7  8  2  0
  7  9  1  0
  9 10  2  0
 10 11  1  0
 11 12  2  0
 12 13  1  0
 13 14  2  0
 14  9  1  0
M  END
>  <SLURM_JOB_NAME>  (38) 
BulkDock.place:Flavi_NS5_RdRp:RdRp_knitwork_thumb_site_2_impure_split4000_batch001

>  <fragmenstein_error>  (38) 
['']

>  <HIPPO Compound ID>  (38) 
2618

>  <alias>  (38) 
None

>  <energy_score>  (38) 
-38.302259

>  <exports>  (38) 
['/opt/xchem-fragalysis-2/maxwin/BulkDock/OUTPUTS/RdRp_knitwork_thumb_site_2_impure_split4000_batch001_211014.sdf']

>  <fragmenstein_outcome>  (38) 
['acceptable']

>  <fragmenstein_mode>  (38) 
['expansion']

>  <HIPPO Pose ID>  (38) 
44245

>  <name>  (38) 
JMAXKQFHNHXUGT-VIFPVBQESA-N

>  <fragmenstein_runtime>  (38) 
[2.0528011322021484]

>  <csv_name>  (38) 
RdRp_knitwork_thumb_site_2_impure_split4000_batch001.csv

>  <inchikey>  (38) 
JMAXKQFHNHXUGT-VIFPVBQESA-N

>  <original SMILES>  (38) 
COC[C@](C)(O)C(=O)c1cncnc1

>  <scratch_subdir>  (38) 
['/opt/xchem-fragalysis-2/maxwin/BulkDock/SCRATCH/211014/C2618-P17']

>  <tags>  (38) 
['Fragmenstein placed']

>  <distance_score>  (38) 
0.698571

>  <original ID>  (38) 
JMAXKQFHNHXUGT-VIFPVBQESA-N

>  <ref_mols>  (38) 
d0174a,d0587a

>  <SLURM_JOB_ID>  (38) 
211014

>  <ref_pdb>  (38) 
d0174a

$$$$
44248
     RDKit          3D

 14 14  0  0  0  0  0  0  0  0999 V2000
  -14.5344  -69.1677  -22.5641 C   0  0  0  0  0  0  0  0  0  0  0  0
  -14.7495  -69.8297  -21.3224 O   0  0  0  0  0  0  0  0  0  0  0  0
  -13.5951  -69.7625  -20.4765 C   0  0  0  0  0  0  0  0  0  0  0  0
  -12.7257  -71.0518  -20.5171 C   0  0  2  0  0  0  0  0  0  0  0  0
  -13.2087  -72.0896  -21.5449 C   0  0  0  0  0  0  0  0  0  0  0  0
  -12.8444  -71.6717  -19.2304 O   0  0  0  0  0  0  0  0  0  0  0  0
  -11.2848  -70.6424  -20.9311 C   0  0  0  0  0  0  0  0  0  0  0  0
  -11.0352  -70.1001  -22.0099 O   0  0  0  0  0  0  0  0  0  0  0  0
  -10.1248  -70.9276  -20.0694 C   0  0  0  0  0  0  0  0  0  0  0  0
  -10.1389  -70.9898  -18.6936 C   0  0  0  0  0  0  0  0  0  0  0  0
   -9.0451  -71.2675  -17.9427 N   0  0  0  0  0  0  0  0  0  0  0  0
   -7.9033  -71.4635  -18.6249 C   0  0  0  0  0  0  0  0  0  0  0  0
   -7.7617  -71.3850  -19.9546 N   0  0  0  0  0  0  0  0  0  0  0  0
   -8.8848  -71.1080  -20.6514 C   0  0  0  0  0  0  0  0  0  0  0  0
  1  2  1  0
  2  3  1  0
  3  4  1  0
  4  5  1  6
  4  6  1  0
  4  7  1  0
  7  8  2  0
  7  9  1  0
  9 10  2  0
 10 11  1  0
 11 12  2  0
 12 13  1  0
 13 14  2  0
 14  9  1  0
M  END
>  <SLURM_JOB_NAME>  (39) 
BulkDock.place:Flavi_NS5_RdRp:RdRp_knitwork_thumb_site_2_impure_split4000_batch001

>  <fragmenstein_error>  (39) 
['']

>  <HIPPO Compound ID>  (39) 
2618

>  <alias>  (39) 
None

>  <energy_score>  (39) 
-38.015318

>  <exports>  (39) 
['/opt/xchem-fragalysis-2/maxwin/BulkDock/OUTPUTS/RdRp_knitwork_thumb_site_2_impure_split4000_batch001_211014.sdf']

>  <fragmenstein_outcome>  (39) 
['acceptable']

>  <fragmenstein_mode>  (39) 
['expansion']

>  <HIPPO Pose ID>  (39) 
44248

>  <name>  (39) 
JMAXKQFHNHXUGT-VIFPVBQESA-N

>  <fragmenstein_runtime>  (39) 
[2.0517728328704834]

>  <csv_name>  (39) 
RdRp_knitwork_thumb_site_2_impure_split4000_batch001.csv

>  <inchikey>  (39) 
JMAXKQFHNHXUGT-VIFPVBQESA-N

>  <original SMILES>  (39) 
COC[C@](C)(O)C(=O)c1cncnc1

>  <scratch_subdir>  (39) 
['/opt/xchem-fragalysis-2/maxwin/BulkDock/SCRATCH/211014/C2618-P48']

>  <tags>  (39) 
['Fragmenstein placed']

>  <distance_score>  (39) 
0.638743

>  <original ID>  (39) 
JMAXKQFHNHXUGT-VIFPVBQESA-N

>  <ref_mols>  (39) 
d0174a,d0587a

>  <SLURM_JOB_ID>  (39) 
211014

>  <ref_pdb>  (39) 
d0587a

$$$$
44251
     RDKit          3D

 13 13  0  0  0  0  0  0  0  0999 V2000
  -14.8062  -69.4995  -22.9796 C   0  0  0  0  0  0  0  0  0  0  0  0
  -14.7383  -70.0149  -21.7457 C   0  0  0  0  0  0  0  0  0  0  0  0
  -13.7683  -69.5445  -20.7086 C   0  0  0  0  0  0  0  0  0  0  0  0
  -12.7357  -70.6240  -20.3884 C   0  0  0  0  0  0  0  0  0  0  0  0
  -13.0886  -71.6984  -19.8954 O   0  0  0  0  0  0  0  0  0  0  0  0
  -11.2770  -70.2197  -20.6270 C   0  0  2  0  0  0  0  0  0  0  0  0
  -10.9611  -70.0883  -22.0111 O   0  0  0  0  0  0  0  0  0  0  0  0
  -10.1988  -71.0262  -19.9316 C   0  0  0  0  0  0  0  0  0  0  0  0
  -10.3581  -71.5606  -18.6685 C   0  0  0  0  0  0  0  0  0  0  0  0
   -9.2363  -72.1152  -18.0965 C   0  0  0  0  0  0  0  0  0  0  0  0
   -8.0268  -72.1252  -18.6818 N   0  0  0  0  0  0  0  0  0  0  0  0
   -7.9675  -71.5878  -19.9066 C   0  0  0  0  0  0  0  0  0  0  0  0
   -8.9966  -71.0402  -20.5698 N   0  0  0  0  0  0  0  0  0  0  0  0
  1  2  2  0
  2  3  1  0
  3  4  1  0
  4  5  2  0
  4  6  1  0
  6  7  1  6
  6  8  1  0
  8  9  2  0
  9 10  1  0
 10 11  2  0
 11 12  1  0
 12 13  2  0
 13  8  1  0
M  END
>  <SLURM_JOB_NAME>  (40) 
BulkDock.place:Flavi_NS5_RdRp:RdRp_knitwork_thumb_site_2_impure_split4000_batch001

>  <fragmenstein_error>  (40) 
['']

>  <HIPPO Compound ID>  (40) 
2622

>  <alias>  (40) 
None

>  <energy_score>  (40) 
-37.166808

>  <exports>  (40) 
['/opt/xchem-fragalysis-2/maxwin/BulkDock/OUTPUTS/RdRp_knitwork_thumb_site_2_impure_split4000_batch001_211014.sdf']

>  <fragmenstein_outcome>  (40) 
['acceptable']

>  <fragmenstein_mode>  (40) 
['expansion']

>  <HIPPO Pose ID>  (40) 
44251

>  <name>  (40) 
PHDBAFIEWKOIGC-SECBINFHSA-N

>  <fragmenstein_runtime>  (40) 
[1.9346106052398682]

>  <csv_name>  (40) 
RdRp_knitwork_thumb_site_2_impure_split4000_batch001.csv

>  <inchikey>  (40) 
PHDBAFIEWKOIGC-SECBINFHSA-N

>  <original SMILES>  (40) 
C=CCC(=O)[C@H](O)c1ccncn1

>  <scratch_subdir>  (40) 
['/opt/xchem-fragalysis-2/maxwin/BulkDock/SCRATCH/211014/C2622-P17']

>  <tags>  (40) 
['Fragmenstein placed']

>  <distance_score>  (40) 
0.793821

>  <original ID>  (40) 
PHDBAFIEWKOIGC-SECBINFHSA-N

>  <ref_mols>  (40) 
d0174a,d0587a

>  <SLURM_JOB_ID>  (40) 
211014

>  <ref_pdb>  (40) 
d0174a

$$$$
44253
     RDKit          3D

 13 13  0  0  0  0  0  0  0  0999 V2000
  -14.7837  -69.7818  -22.9709 C   0  0  0  0  0  0  0  0  0  0  0  0
  -14.7759  -70.0954  -21.6698 C   0  0  0  0  0  0  0  0  0  0  0  0
  -13.7419  -69.5892  -20.7151 C   0  0  0  0  0  0  0  0  0  0  0  0
  -12.7056  -70.6674  -20.4003 C   0  0  0  0  0  0  0  0  0  0  0  0
  -13.0488  -71.7587  -19.9398 O   0  0  0  0  0  0  0  0  0  0  0  0
  -11.2501  -70.2330  -20.5928 C   0  0  2  0  0  0  0  0  0  0  0  0
  -10.9119  -70.0388  -21.9655 O   0  0  0  0  0  0  0  0  0  0  0  0
  -10.1729  -71.0525  -19.9133 C   0  0  0  0  0  0  0  0  0  0  0  0
  -10.3353  -71.6047  -18.6583 C   0  0  0  0  0  0  0  0  0  0  0  0
   -9.2131  -72.1612  -18.0898 C   0  0  0  0  0  0  0  0  0  0  0  0
   -8.0014  -72.1576  -18.6715 N   0  0  0  0  0  0  0  0  0  0  0  0
   -7.9412  -71.6083  -19.8909 C   0  0  0  0  0  0  0  0  0  0  0  0
   -8.9696  -71.0554  -20.5501 N   0  0  0  0  0  0  0  0  0  0  0  0
  1  2  2  0
  2  3  1  0
  3  4  1  0
  4  5  2  0
  4  6  1  0
  6  7  1  6
  6  8  1  0
  8  9  2  0
  9 10  1  0
 10 11  2  0
 11 12  1  0
 12 13  2  0
 13  8  1  0
M  END
>  <SLURM_JOB_NAME>  (41) 
BulkDock.place:Flavi_NS5_RdRp:RdRp_knitwork_thumb_site_2_impure_split4000_batch001

>  <fragmenstein_error>  (41) 
['']

>  <HIPPO Compound ID>  (41) 
2622

>  <alias>  (41) 
None

>  <energy_score>  (41) 
-37.225266

>  <exports>  (41) 
['/opt/xchem-fragalysis-2/maxwin/BulkDock/OUTPUTS/RdRp_knitwork_thumb_site_2_impure_split4000_batch001_211014.sdf']

>  <fragmenstein_outcome>  (41) 
['acceptable']

>  <fragmenstein_mode>  (41) 
['expansion']

>  <HIPPO Pose ID>  (41) 
44253

>  <name>  (41) 
PHDBAFIEWKOIGC-SECBINFHSA-N

>  <fragmenstein_runtime>  (41) 
[1.927771806716919]

>  <csv_name>  (41) 
RdRp_knitwork_thumb_site_2_impure_split4000_batch001.csv

>  <inchikey>  (41) 
PHDBAFIEWKOIGC-SECBINFHSA-N

>  <original SMILES>  (41) 
C=CCC(=O)[C@H](O)c1ccncn1

>  <scratch_subdir>  (41) 
['/opt/xchem-fragalysis-2/maxwin/BulkDock/SCRATCH/211014/C2622-P48']

>  <tags>  (41) 
['Fragmenstein placed']

>  <distance_score>  (41) 
0.817395

>  <original ID>  (41) 
PHDBAFIEWKOIGC-SECBINFHSA-N

>  <ref_mols>  (41) 
d0174a,d0587a

>  <SLURM_JOB_ID>  (41) 
211014

>  <ref_pdb>  (41) 
d0587a

$$$$
44255
     RDKit          3D

 15 15  0  0  0  0  0  0  0  0999 V2000
  -12.3274  -73.2238  -22.1914 C   0  0  0  0  0  0  0  0  0  0  0  0
  -13.0425  -71.8745  -22.1497 C   0  0  0  0  0  0  0  0  0  0  0  0
  -12.6455  -70.9978  -20.9294 C   0  0  2  0  0  0  0  0  0  0  0  0
  -12.9806  -71.7238  -19.7492 O   0  0  0  0  0  0  0  0  0  0  0  0
  -13.4317  -69.6590  -20.8868 C   0  0  0  0  0  0  0  0  0  0  0  0
  -14.8048  -69.8379  -21.2657 O   0  0  0  0  0  0  0  0  0  0  0  0
  -15.0847  -69.1877  -22.5059 C   0  0  0  0  0  0  0  0  0  0  0  0
  -11.1537  -70.6206  -21.1170 C   0  0  0  0  0  0  0  0  0  0  0  0
  -10.7611  -70.0314  -22.1281 O   0  0  0  0  0  0  0  0  0  0  0  0
  -10.1175  -70.9697  -20.1304 C   0  0  0  0  0  0  0  0  0  0  0  0
  -10.3135  -71.2038  -18.7886 C   0  0  0  0  0  0  0  0  0  0  0  0
   -9.3118  -71.5043  -17.9247 N   0  0  0  0  0  0  0  0  0  0  0  0
   -8.0794  -71.5697  -18.4569 C   0  0  0  0  0  0  0  0  0  0  0  0
   -7.7641  -71.3304  -19.7354 N   0  0  0  0  0  0  0  0  0  0  0  0
   -8.8001  -71.0289  -20.5472 C   0  0  0  0  0  0  0  0  0  0  0  0
  1  2  1  0
  2  3  1  0
  3  4  1  1
  3  5  1  0
  5  6  1  0
  6  7  1  0
  3  8  1  0
  8  9  2  0
  8 10  1  0
 10 11  2  0
 11 12  1  0
 12 13  2  0
 13 14  1  0
 14 15  2  0
 15 10  1  0
M  END
>  <SLURM_JOB_NAME>  (42) 
BulkDock.place:Flavi_NS5_RdRp:RdRp_knitwork_thumb_site_2_impure_split4000_batch001

>  <fragmenstein_error>  (42) 
['']

>  <HIPPO Compound ID>  (42) 
2634

>  <alias>  (42) 
None

>  <energy_score>  (42) 
-68.107033

>  <exports>  (42) 
['/opt/xchem-fragalysis-2/maxwin/BulkDock/OUTPUTS/RdRp_knitwork_thumb_site_2_impure_split4000_batch001_211014.sdf']

>  <fragmenstein_outcome>  (42) 
['acceptable']

>  <fragmenstein_mode>  (42) 
['expansion']

>  <HIPPO Pose ID>  (42) 
44255

>  <name>  (42) 
ZQAOMBKBLUXWCY-JTQLQIEISA-N

>  <fragmenstein_runtime>  (42) 
[2.3550987243652344]

>  <csv_name>  (42) 
RdRp_knitwork_thumb_site_2_impure_split4000_batch001.csv

>  <inchikey>  (42) 
ZQAOMBKBLUXWCY-JTQLQIEISA-N

>  <original SMILES>  (42) 
CC[C@](O)(COC)C(=O)c1cncnc1

>  <scratch_subdir>  (42) 
['/opt/xchem-fragalysis-2/maxwin/BulkDock/SCRATCH/211014/C2634-P17']

>  <tags>  (42) 
['Fragmenstein placed']

>  <distance_score>  (42) 
0.795524

>  <original ID>  (42) 
ZQAOMBKBLUXWCY-JTQLQIEISA-N

>  <ref_mols>  (42) 
d0174a,d0587a

>  <SLURM_JOB_ID>  (42) 
211014

>  <ref_pdb>  (42) 
d0174a

$$$$
44257
     RDKit          3D

 15 15  0  0  0  0  0  0  0  0999 V2000
  -12.2295  -73.2243  -22.2170 C   0  0  0  0  0  0  0  0  0  0  0  0
  -12.9676  -71.8894  -22.1367 C   0  0  0  0  0  0  0  0  0  0  0  0
  -12.5653  -71.0311  -20.9071 C   0  0  2  0  0  0  0  0  0  0  0  0
  -12.8724  -71.7897  -19.7411 O   0  0  0  0  0  0  0  0  0  0  0  0
  -13.3700  -69.7086  -20.8219 C   0  0  0  0  0  0  0  0  0  0  0  0
  -14.7593  -69.9270  -21.1087 O   0  0  0  0  0  0  0  0  0  0  0  0
  -15.1279  -69.3007  -22.3350 C   0  0  0  0  0  0  0  0  0  0  0  0
  -11.0861  -70.6222  -21.1042 C   0  0  0  0  0  0  0  0  0  0  0  0
  -10.7132  -70.0098  -22.1087 O   0  0  0  0  0  0  0  0  0  0  0  0
  -10.0395  -70.9706  -20.1305 C   0  0  0  0  0  0  0  0  0  0  0  0
  -10.2221  -71.1919  -18.7845 C   0  0  0  0  0  0  0  0  0  0  0  0
   -9.2122  -71.4931  -17.9311 N   0  0  0  0  0  0  0  0  0  0  0  0
   -7.9877  -71.5753  -18.4792 C   0  0  0  0  0  0  0  0  0  0  0  0
   -7.6864  -71.3499  -19.7640 N   0  0  0  0  0  0  0  0  0  0  0  0
   -8.7292  -71.0438  -20.5647 C   0  0  0  0  0  0  0  0  0  0  0  0
  1  2  1  0
  2  3  1  0
  3  4  1  1
  3  5  1  0
  5  6  1  0
  6  7  1  0
  3  8  1  0
  8  9  2  0
  8 10  1  0
 10 11  2  0
 11 12  1  0
 12 13  2  0
 13 14  1  0
 14 15  2  0
 15 10  1  0
M  END
>  <SLURM_JOB_NAME>  (43) 
BulkDock.place:Flavi_NS5_RdRp:RdRp_knitwork_thumb_site_2_impure_split4000_batch001

>  <fragmenstein_error>  (43) 
['']

>  <HIPPO Compound ID>  (43) 
2634

>  <alias>  (43) 
None

>  <energy_score>  (43) 
-69.067217

>  <exports>  (43) 
['/opt/xchem-fragalysis-2/maxwin/BulkDock/OUTPUTS/RdRp_knitwork_thumb_site_2_impure_split4000_batch001_211014.sdf']

>  <fragmenstein_outcome>  (43) 
['acceptable']

>  <fragmenstein_mode>  (43) 
['expansion']

>  <HIPPO Pose ID>  (43) 
44257

>  <name>  (43) 
ZQAOMBKBLUXWCY-JTQLQIEISA-N

>  <fragmenstein_runtime>  (43) 
[2.2723443508148193]

>  <csv_name>  (43) 
RdRp_knitwork_thumb_site_2_impure_split4000_batch001.csv

>  <inchikey>  (43) 
ZQAOMBKBLUXWCY-JTQLQIEISA-N

>  <original SMILES>  (43) 
CC[C@](O)(COC)C(=O)c1cncnc1

>  <scratch_subdir>  (43) 
['/opt/xchem-fragalysis-2/maxwin/BulkDock/SCRATCH/211014/C2634-P48']

>  <tags>  (43) 
['Fragmenstein placed']

>  <distance_score>  (43) 
0.815294

>  <original ID>  (43) 
ZQAOMBKBLUXWCY-JTQLQIEISA-N

>  <ref_mols>  (43) 
d0174a,d0587a

>  <SLURM_JOB_ID>  (43) 
211014

>  <ref_pdb>  (43) 
d0587a

$$$$
44268
     RDKit          3D

 18 18  0  0  0  0  0  0  0  0999 V2000
  -10.5889  -71.0509  -22.2917 C   0  0  0  0  0  0  0  0  0  0  0  0
  -11.1028  -70.5046  -20.9595 C   0  0  1  0  0  0  0  0  0  0  0  0
  -12.5215  -71.0027  -20.7479 N   0  0  0  0  0  0  0  0  0  0  0  0
  -13.6511  -69.8767  -20.2271 S   0  0  0  0  0  0  0  0  0  0  0  0
  -13.1184  -68.5467  -20.3692 O   0  0  0  0  0  0  0  0  0  0  0  0
  -14.1307  -70.3474  -18.9410 O   0  0  0  0  0  0  0  0  0  0  0  0
  -15.0160  -70.0430  -21.3591 C   0  0  0  0  0  0  0  0  0  0  0  0
  -14.7564  -70.0023  -22.8721 C   0  0  0  0  0  0  0  0  0  0  0  0
  -14.3280  -71.3800  -23.4087 C   0  0  0  0  0  0  0  0  0  0  0  0
  -13.7578  -68.9335  -23.3080 C   0  0  0  0  0  0  0  0  0  0  0  0
  -16.0643  -69.6822  -23.5114 C   0  0  0  0  0  0  0  0  0  0  0  0
  -17.0934  -69.4260  -23.9866 N   0  0  0  0  0  0  0  0  0  0  0  0
  -10.1192  -70.8966  -19.8648 C   0  0  0  0  0  0  0  0  0  0  0  0
  -10.5885  -71.5587  -18.7871 N   0  0  0  0  0  0  0  0  0  0  0  0
   -9.6657  -71.9431  -17.8836 C   0  0  0  0  0  0  0  0  0  0  0  0
   -8.3144  -71.7275  -18.0320 C   0  0  0  0  0  0  0  0  0  0  0  0
   -7.9376  -71.0550  -19.1674 C   0  0  0  0  0  0  0  0  0  0  0  0
   -8.8156  -70.6201  -20.0839 N   0  0  0  0  0  0  0  0  0  0  0  0
  2  1  1  6
  2  3  1  0
  3  4  1  0
  4  5  2  0
  4  6  2  0
  4  7  1  0
  7  8  1  0
  8  9  1  0
  8 10  1  0
  8 11  1  0
 11 12  3  0
  2 13  1  0
 13 14  2  0
 14 15  1  0
 15 16  2  0
 16 17  1  0
 17 18  2  0
 18 13  1  0
M  END
>  <SLURM_JOB_NAME>  (44) 
BulkDock.place:Flavi_NS5_RdRp:RdRp_knitwork_thumb_site_2_impure_split4000_batch001

>  <fragmenstein_error>  (44) 
['']

>  <HIPPO Compound ID>  (44) 
2658

>  <alias>  (44) 
None

>  <energy_score>  (44) 
-39.203685

>  <exports>  (44) 
['/opt/xchem-fragalysis-2/maxwin/BulkDock/OUTPUTS/RdRp_knitwork_thumb_site_2_impure_split4000_batch001_211014.sdf']

>  <fragmenstein_outcome>  (44) 
['acceptable']

>  <fragmenstein_mode>  (44) 
['expansion']

>  <HIPPO Pose ID>  (44) 
44268

>  <name>  (44) 
PQVOAXSKDPVOCO-SECBINFHSA-N

>  <fragmenstein_runtime>  (44) 
[3.466348648071289]

>  <csv_name>  (44) 
RdRp_knitwork_thumb_site_2_impure_split4000_batch001.csv

>  <inchikey>  (44) 
PQVOAXSKDPVOCO-SECBINFHSA-N

>  <original SMILES>  (44) 
C[C@@H](NS(=O)(=O)CC(C)(C)C#N)c1ncccn1

>  <scratch_subdir>  (44) 
['/opt/xchem-fragalysis-2/maxwin/BulkDock/SCRATCH/211014/C2658-P17']

>  <tags>  (44) 
['Fragmenstein placed']

>  <distance_score>  (44) 
0.878394

>  <original ID>  (44) 
PQVOAXSKDPVOCO-SECBINFHSA-N

>  <ref_mols>  (44) 
d0174a,d0587a

>  <SLURM_JOB_ID>  (44) 
211014

>  <ref_pdb>  (44) 
d0174a

$$$$
44275
     RDKit          3D

 15 15  0  0  0  0  0  0  0  0999 V2000
  -10.9313  -71.4725  -22.4579 C   0  0  0  0  0  0  0  0  0  0  0  0
  -11.2772  -70.6413  -21.2299 C   0  0  1  0  0  0  0  0  0  0  0  0
  -12.6461  -71.0430  -20.7364 N   0  0  0  0  0  0  0  0  0  0  0  0
  -13.6455  -69.8083  -20.1938 S   0  0  0  0  0  0  0  0  0  0  0  0
  -12.9003  -68.5761  -20.1416 O   0  0  0  0  0  0  0  0  0  0  0  0
  -14.2824  -70.3186  -18.9914 O   0  0  0  0  0  0  0  0  0  0  0  0
  -14.9150  -69.6732  -21.4402 C   0  0  0  0  0  0  0  0  0  0  0  0
  -14.2663  -69.5452  -22.7317 C   0  0  0  0  0  0  0  0  0  0  0  0
  -13.7900  -69.4922  -23.7886 N   0  0  0  0  0  0  0  0  0  0  0  0
  -10.1755  -70.8737  -20.2005 C   0  0  0  0  0  0  0  0  0  0  0  0
  -10.4710  -71.6584  -19.1364 N   0  0  0  0  0  0  0  0  0  0  0  0
   -9.4342  -71.9927  -18.3441 C   0  0  0  0  0  0  0  0  0  0  0  0
   -8.1380  -71.5924  -18.5725 C   0  0  0  0  0  0  0  0  0  0  0  0
   -7.9452  -70.7975  -19.6763 C   0  0  0  0  0  0  0  0  0  0  0  0
   -8.9406  -70.4205  -20.4968 N   0  0  0  0  0  0  0  0  0  0  0  0
  2  1  1  6
  2  3  1  0
  3  4  1  0
  4  5  2  0
  4  6  2  0
  4  7  1  0
  7  8  1  0
  8  9  3  0
  2 10  1  0
 10 11  2  0
 11 12  1  0
 12 13  2  0
 13 14  1  0
 14 15  2  0
 15 10  1  0
M  END
>  <SLURM_JOB_NAME>  (45) 
BulkDock.place:Flavi_NS5_RdRp:RdRp_knitwork_thumb_site_2_impure_split4000_batch001

>  <fragmenstein_error>  (45) 
['']

>  <HIPPO Compound ID>  (45) 
2664

>  <alias>  (45) 
None

>  <energy_score>  (45) 
-33.472931

>  <exports>  (45) 
['/opt/xchem-fragalysis-2/maxwin/BulkDock/OUTPUTS/RdRp_knitwork_thumb_site_2_impure_split4000_batch001_211014.sdf']

>  <fragmenstein_outcome>  (45) 
['acceptable']

>  <fragmenstein_mode>  (45) 
['expansion']

>  <HIPPO Pose ID>  (45) 
44275

>  <name>  (45) 
XXQBDXPESCLSQC-SSDOTTSWSA-N

>  <fragmenstein_runtime>  (45) 
[2.426215410232544]

>  <csv_name>  (45) 
RdRp_knitwork_thumb_site_2_impure_split4000_batch001.csv

>  <inchikey>  (45) 
XXQBDXPESCLSQC-SSDOTTSWSA-N

>  <original SMILES>  (45) 
C[C@@H](NS(=O)(=O)CC#N)c1ncccn1

>  <scratch_subdir>  (45) 
['/opt/xchem-fragalysis-2/maxwin/BulkDock/SCRATCH/211014/C2664-P17']

>  <tags>  (45) 
['Fragmenstein placed']

>  <distance_score>  (45) 
0.77147

>  <original ID>  (45) 
XXQBDXPESCLSQC-SSDOTTSWSA-N

>  <ref_mols>  (45) 
d0174a,d0587a

>  <SLURM_JOB_ID>  (45) 
211014

>  <ref_pdb>  (45) 
d0174a

$$$$
44277
     RDKit          3D

 15 15  0  0  0  0  0  0  0  0999 V2000
  -10.9522  -71.4117  -22.4309 C   0  0  0  0  0  0  0  0  0  0  0  0
  -11.3081  -70.6180  -21.1804 C   0  0  1  0  0  0  0  0  0  0  0  0
  -12.6740  -71.0474  -20.6973 N   0  0  0  0  0  0  0  0  0  0  0  0
  -13.6943  -69.8341  -20.1447 S   0  0  0  0  0  0  0  0  0  0  0  0
  -12.9975  -68.5731  -20.1730 O   0  0  0  0  0  0  0  0  0  0  0  0
  -14.2630  -70.3250  -18.9006 O   0  0  0  0  0  0  0  0  0  0  0  0
  -15.0245  -69.7776  -21.3274 C   0  0  0  0  0  0  0  0  0  0  0  0
  -14.4604  -69.7904  -22.6633 C   0  0  0  0  0  0  0  0  0  0  0  0
  -14.0895  -69.8630  -23.7605 N   0  0  0  0  0  0  0  0  0  0  0  0
  -10.2041  -70.8679  -20.1572 C   0  0  0  0  0  0  0  0  0  0  0  0
  -10.4991  -71.6699  -19.1066 N   0  0  0  0  0  0  0  0  0  0  0  0
   -9.4625  -72.0212  -18.3217 C   0  0  0  0  0  0  0  0  0  0  0  0
   -8.1653  -71.6222  -18.5464 C   0  0  0  0  0  0  0  0  0  0  0  0
   -7.9723  -70.8089  -19.6367 C   0  0  0  0  0  0  0  0  0  0  0  0
   -8.9681  -70.4130  -20.4479 N   0  0  0  0  0  0  0  0  0  0  0  0
  2  1  1  6
  2  3  1  0
  3  4  1  0
  4  5  2  0
  4  6  2  0
  4  7  1  0
  7  8  1  0
  8  9  3  0
  2 10  1  0
 10 11  2  0
 11 12  1  0
 12 13  2  0
 13 14  1  0
 14 15  2  0
 15 10  1  0
M  END
>  <SLURM_JOB_NAME>  (46) 
BulkDock.place:Flavi_NS5_RdRp:RdRp_knitwork_thumb_site_2_impure_split4000_batch001

>  <fragmenstein_error>  (46) 
['']

>  <HIPPO Compound ID>  (46) 
2664

>  <alias>  (46) 
None

>  <energy_score>  (46) 
-32.53111

>  <exports>  (46) 
['/opt/xchem-fragalysis-2/maxwin/BulkDock/OUTPUTS/RdRp_knitwork_thumb_site_2_impure_split4000_batch001_211014.sdf']

>  <fragmenstein_outcome>  (46) 
['acceptable']

>  <fragmenstein_mode>  (46) 
['expansion']

>  <HIPPO Pose ID>  (46) 
44277

>  <name>  (46) 
XXQBDXPESCLSQC-SSDOTTSWSA-N

>  <fragmenstein_runtime>  (46) 
[2.5311026573181152]

>  <csv_name>  (46) 
RdRp_knitwork_thumb_site_2_impure_split4000_batch001.csv

>  <inchikey>  (46) 
XXQBDXPESCLSQC-SSDOTTSWSA-N

>  <original SMILES>  (46) 
C[C@@H](NS(=O)(=O)CC#N)c1ncccn1

>  <scratch_subdir>  (46) 
['/opt/xchem-fragalysis-2/maxwin/BulkDock/SCRATCH/211014/C2664-P48']

>  <tags>  (46) 
['Fragmenstein placed']

>  <distance_score>  (46) 
0.781223

>  <original ID>  (46) 
XXQBDXPESCLSQC-SSDOTTSWSA-N

>  <ref_mols>  (46) 
d0174a,d0587a

>  <SLURM_JOB_ID>  (46) 
211014

>  <ref_pdb>  (46) 
d0587a

$$$$
44281
     RDKit          3D

 13 13  0  0  0  0  0  0  0  0999 V2000
  -15.0268  -69.4900  -22.8280 C   0  0  0  0  0  0  0  0  0  0  0  0
  -14.6644  -69.8258  -21.4912 O   0  0  0  0  0  0  0  0  0  0  0  0
  -13.2409  -69.7162  -21.2969 C   0  0  1  0  0  0  0  0  0  0  0  0
  -13.0411  -69.1508  -19.9120 C   0  0  0  0  0  0  0  0  0  0  0  0
  -12.6203  -71.1069  -21.4592 C   0  0  0  0  0  0  0  0  0  0  0  0
  -11.0908  -71.1620  -21.5786 C   0  0  1  0  0  0  0  0  0  0  0  0
  -10.6249  -70.1015  -22.4222 O   0  0  0  0  0  0  0  0  0  0  0  0
  -10.2284  -71.2059  -20.3343 C   0  0  0  0  0  0  0  0  0  0  0  0
  -10.6191  -71.8197  -19.1620 C   0  0  0  0  0  0  0  0  0  0  0  0
   -9.6702  -71.8845  -18.1646 C   0  0  0  0  0  0  0  0  0  0  0  0
   -8.4206  -71.4024  -18.2834 N   0  0  0  0  0  0  0  0  0  0  0  0
   -8.1290  -70.8392  -19.4637 C   0  0  0  0  0  0  0  0  0  0  0  0
   -8.9737  -70.7070  -20.4966 N   0  0  0  0  0  0  0  0  0  0  0  0
  1  2  1  0
  2  3  1  0
  3  4  1  1
  3  5  1  0
  5  6  1  0
  6  7  1  1
  6  8  1  0
  8  9  2  0
  9 10  1  0
 10 11  2  0
 11 12  1  0
 12 13  2  0
 13  8  1  0
M  END
>  <SLURM_JOB_NAME>  (47) 
BulkDock.place:Flavi_NS5_RdRp:RdRp_knitwork_thumb_site_2_impure_split4000_batch001

>  <fragmenstein_error>  (47) 
['']

>  <HIPPO Compound ID>  (47) 
2667

>  <alias>  (47) 
None

>  <energy_score>  (47) 
-35.0753

>  <exports>  (47) 
['/opt/xchem-fragalysis-2/maxwin/BulkDock/OUTPUTS/RdRp_knitwork_thumb_site_2_impure_split4000_batch001_211014.sdf']

>  <fragmenstein_outcome>  (47) 
['acceptable']

>  <fragmenstein_mode>  (47) 
['expansion']

>  <HIPPO Pose ID>  (47) 
44281

>  <name>  (47) 
DNHUCNHKYALNPC-IONNQARKSA-N

>  <fragmenstein_runtime>  (47) 
[2.8815319538116455]

>  <csv_name>  (47) 
RdRp_knitwork_thumb_site_2_impure_split4000_batch001.csv

>  <inchikey>  (47) 
DNHUCNHKYALNPC-IONNQARKSA-N

>  <original SMILES>  (47) 
CO[C@@H](C)C[C@@H](O)c1ccncn1

>  <scratch_subdir>  (47) 
['/opt/xchem-fragalysis-2/maxwin/BulkDock/SCRATCH/211014/C2667-P17']

>  <tags>  (47) 
['Fragmenstein placed']

>  <distance_score>  (47) 
0.902762

>  <original ID>  (47) 
DNHUCNHKYALNPC-IONNQARKSA-N

>  <ref_mols>  (47) 
d0174a,d0587a

>  <SLURM_JOB_ID>  (47) 
211014

>  <ref_pdb>  (47) 
d0174a

$$$$
44283
     RDKit          3D

 13 13  0  0  0  0  0  0  0  0999 V2000
  -15.0759  -69.7685  -22.7391 C   0  0  0  0  0  0  0  0  0  0  0  0
  -14.6553  -69.9734  -21.3961 O   0  0  0  0  0  0  0  0  0  0  0  0
  -13.2304  -69.8036  -21.2645 C   0  0  1  0  0  0  0  0  0  0  0  0
  -13.0058  -69.1764  -19.9115 C   0  0  0  0  0  0  0  0  0  0  0  0
  -12.5627  -71.1740  -21.4006 C   0  0  0  0  0  0  0  0  0  0  0  0
  -11.0327  -71.1822  -21.5192 C   0  0  1  0  0  0  0  0  0  0  0  0
  -10.5901  -70.1028  -22.3519 O   0  0  0  0  0  0  0  0  0  0  0  0
  -10.1698  -71.2129  -20.2752 C   0  0  0  0  0  0  0  0  0  0  0  0
  -10.5646  -71.7917  -19.0868 C   0  0  0  0  0  0  0  0  0  0  0  0
   -9.6156  -71.8376  -18.0885 C   0  0  0  0  0  0  0  0  0  0  0  0
   -8.3620  -71.3688  -18.2204 N   0  0  0  0  0  0  0  0  0  0  0  0
   -8.0672  -70.8401  -19.4157 C   0  0  0  0  0  0  0  0  0  0  0  0
   -8.9106  -70.7297  -20.4517 N   0  0  0  0  0  0  0  0  0  0  0  0
  1  2  1  0
  2  3  1  0
  3  4  1  1
  3  5  1  0
  5  6  1  0
  6  7  1  1
  6  8  1  0
  8  9  2  0
  9 10  1  0
 10 11  2  0
 11 12  1  0
 12 13  2  0
 13  8  1  0
M  END
>  <SLURM_JOB_NAME>  (48) 
BulkDock.place:Flavi_NS5_RdRp:RdRp_knitwork_thumb_site_2_impure_split4000_batch001

>  <fragmenstein_error>  (48) 
['']

>  <HIPPO Compound ID>  (48) 
2667

>  <alias>  (48) 
None

>  <energy_score>  (48) 
-34.932382

>  <exports>  (48) 
['/opt/xchem-fragalysis-2/maxwin/BulkDock/OUTPUTS/RdRp_knitwork_thumb_site_2_impure_split4000_batch001_211014.sdf']

>  <fragmenstein_outcome>  (48) 
['acceptable']

>  <fragmenstein_mode>  (48) 
['expansion']

>  <HIPPO Pose ID>  (48) 
44283

>  <name>  (48) 
DNHUCNHKYALNPC-IONNQARKSA-N

>  <fragmenstein_runtime>  (48) 
[2.839735746383667]

>  <csv_name>  (48) 
RdRp_knitwork_thumb_site_2_impure_split4000_batch001.csv

>  <inchikey>  (48) 
DNHUCNHKYALNPC-IONNQARKSA-N

>  <original SMILES>  (48) 
CO[C@@H](C)C[C@@H](O)c1ccncn1

>  <scratch_subdir>  (48) 
['/opt/xchem-fragalysis-2/maxwin/BulkDock/SCRATCH/211014/C2667-P48']

>  <tags>  (48) 
['Fragmenstein placed']

>  <distance_score>  (48) 
0.906289

>  <original ID>  (48) 
DNHUCNHKYALNPC-IONNQARKSA-N

>  <ref_mols>  (48) 
d0174a,d0587a

>  <SLURM_JOB_ID>  (48) 
211014

>  <ref_pdb>  (48) 
d0587a

$$$$
44287
     RDKit          3D

 13 13  0  0  0  0  0  0  0  0999 V2000
  -14.5876  -70.4857  -21.8712 C   0  0  0  0  0  0  0  0  0  0  0  0
  -13.9046  -70.0792  -20.5754 C   0  0  0  0  0  0  0  0  0  0  0  0
  -13.6605  -68.5857  -20.5552 C   0  0  0  0  0  0  0  0  0  0  0  0
  -12.6481  -70.9187  -20.3122 C   0  0  0  0  0  0  0  0  0  0  0  0
  -12.7788  -72.0164  -19.7602 O   0  0  0  0  0  0  0  0  0  0  0  0
  -11.2612  -70.3459  -20.6934 C   0  0  2  0  0  0  0  0  0  0  0  0
  -11.0418  -70.2391  -22.0876 O   0  0  0  0  0  0  0  0  0  0  0  0
  -10.0984  -70.9977  -19.9950 C   0  0  0  0  0  0  0  0  0  0  0  0
  -10.0397  -71.0665  -18.6128 C   0  0  0  0  0  0  0  0  0  0  0  0
   -8.9732  -71.5079  -17.9162 N   0  0  0  0  0  0  0  0  0  0  0  0
   -7.9330  -71.9136  -18.6592 C   0  0  0  0  0  0  0  0  0  0  0  0
   -7.8689  -71.9016  -19.9974 N   0  0  0  0  0  0  0  0  0  0  0  0
   -8.9675  -71.4578  -20.6381 C   0  0  0  0  0  0  0  0  0  0  0  0
  1  2  1  0
  2  3  1  0
  2  4  1  0
  4  5  2  0
  4  6  1  0
  6  7  1  6
  6  8  1  0
  8  9  2  0
  9 10  1  0
 10 11  2  0
 11 12  1  0
 12 13  2  0
 13  8  1  0
M  END
>  <SLURM_JOB_NAME>  (49) 
BulkDock.place:Flavi_NS5_RdRp:RdRp_knitwork_thumb_site_2_impure_split4000_batch001

>  <fragmenstein_error>  (49) 
['']

>  <HIPPO Compound ID>  (49) 
2678

>  <alias>  (49) 
None

>  <energy_score>  (49) 
-21.822001

>  <exports>  (49) 
['/opt/xchem-fragalysis-2/maxwin/BulkDock/OUTPUTS/RdRp_knitwork_thumb_site_2_impure_split4000_batch001_211014.sdf']

>  <fragmenstein_outcome>  (49) 
['acceptable']

>  <fragmenstein_mode>  (49) 
['expansion']

>  <HIPPO Pose ID>  (49) 
44287

>  <name>  (49) 
KBOUKGYJMYEYFB-SECBINFHSA-N

>  <fragmenstein_runtime>  (49) 
[5.360591173171997]

>  <csv_name>  (49) 
RdRp_knitwork_thumb_site_2_impure_split4000_batch001.csv

>  <inchikey>  (49) 
KBOUKGYJMYEYFB-SECBINFHSA-N

>  <original SMILES>  (49) 
CC(C)C(=O)[C@H](O)c1cncnc1

>  <scratch_subdir>  (49) 
['/opt/xchem-fragalysis-2/maxwin/BulkDock/SCRATCH/211014/C2678-P17']

>  <tags>  (49) 
['Fragmenstein placed']

>  <distance_score>  (49) 
0.807589

>  <original ID>  (49) 
KBOUKGYJMYEYFB-SECBINFHSA-N

>  <ref_mols>  (49) 
d0174a,d0587a

>  <SLURM_JOB_ID>  (49) 
211014

>  <ref_pdb>  (49) 
d0174a

$$$$
44289
     RDKit          3D

 13 13  0  0  0  0  0  0  0  0999 V2000
  -14.7272  -70.5411  -21.7523 C   0  0  0  0  0  0  0  0  0  0  0  0
  -13.8402  -70.1489  -20.5762 C   0  0  0  0  0  0  0  0  0  0  0  0
  -13.6022  -68.6529  -20.6110 C   0  0  0  0  0  0  0  0  0  0  0  0
  -12.5679  -71.0150  -20.5392 C   0  0  0  0  0  0  0  0  0  0  0  0
  -12.6743  -72.2277  -20.3281 O   0  0  0  0  0  0  0  0  0  0  0  0
  -11.1897  -70.3445  -20.7249 C   0  0  2  0  0  0  0  0  0  0  0  0
  -10.8553  -70.0742  -22.0760 O   0  0  0  0  0  0  0  0  0  0  0  0
  -10.0672  -71.0293  -19.9965 C   0  0  0  0  0  0  0  0  0  0  0  0
  -10.0033  -71.0141  -18.6136 C   0  0  0  0  0  0  0  0  0  0  0  0
   -8.9697  -71.4965  -17.8963 N   0  0  0  0  0  0  0  0  0  0  0  0
   -7.9744  -72.0337  -18.6184 C   0  0  0  0  0  0  0  0  0  0  0  0
   -7.9286  -72.1220  -19.9550 N   0  0  0  0  0  0  0  0  0  0  0  0
   -8.9964  -71.6378  -20.6165 C   0  0  0  0  0  0  0  0  0  0  0  0
  1  2  1  0
  2  3  1  0
  2  4  1  0
  4  5  2  0
  4  6  1  0
  6  7  1  6
  6  8  1  0
  8  9  2  0
  9 10  1  0
 10 11  2  0
 11 12  1  0
 12 13  2  0
 13  8  1  0
M  END
>  <SLURM_JOB_NAME>  (50) 
BulkDock.place:Flavi_NS5_RdRp:RdRp_knitwork_thumb_site_2_impure_split4000_batch001

>  <fragmenstein_error>  (50) 
['']

>  <HIPPO Compound ID>  (50) 
2678

>  <alias>  (50) 
None

>  <energy_score>  (50) 
-21.06782

>  <exports>  (50) 
['/opt/xchem-fragalysis-2/maxwin/BulkDock/OUTPUTS/RdRp_knitwork_thumb_site_2_impure_split4000_batch001_211014.sdf']

>  <fragmenstein_outcome>  (50) 
['acceptable']

>  <fragmenstein_mode>  (50) 
['expansion']

>  <HIPPO Pose ID>  (50) 
44289

>  <name>  (50) 
KBOUKGYJMYEYFB-SECBINFHSA-N

>  <fragmenstein_runtime>  (50) 
[5.337125539779663]

>  <csv_name>  (50) 
RdRp_knitwork_thumb_site_2_impure_split4000_batch001.csv

>  <inchikey>  (50) 
KBOUKGYJMYEYFB-SECBINFHSA-N

>  <original SMILES>  (50) 
CC(C)C(=O)[C@H](O)c1cncnc1

>  <scratch_subdir>  (50) 
['/opt/xchem-fragalysis-2/maxwin/BulkDock/SCRATCH/211014/C2678-P48']

>  <tags>  (50) 
['Fragmenstein placed']

>  <distance_score>  (50) 
0.817549

>  <original ID>  (50) 
KBOUKGYJMYEYFB-SECBINFHSA-N

>  <ref_mols>  (50) 
d0174a,d0587a

>  <SLURM_JOB_ID>  (50) 
211014

>  <ref_pdb>  (50) 
d0587a

$$$$
44297
     RDKit          3D

 14 14  0  0  0  0  0  0  0  0999 V2000
  -14.6471  -69.8455  -23.3472 C   0  0  0  0  0  0  0  0  0  0  0  0
  -14.3141  -69.9966  -22.2044 C   0  0  0  0  0  0  0  0  0  0  0  0
  -13.8663  -70.1372  -20.8151 C   0  0  2  0  0  0  0  0  0  0  0  0
  -13.6917  -68.7664  -20.1940 C   0  0  0  0  0  0  0  0  0  0  0  0
  -12.6216  -71.0210  -20.6847 C   0  0  0  0  0  0  0  0  0  0  0  0
  -12.7572  -72.2249  -20.4355 O   0  0  0  0  0  0  0  0  0  0  0  0
  -11.2398  -70.3636  -20.8433 C   0  0  2  0  0  0  0  0  0  0  0  0
  -10.8602  -70.1734  -22.2006 O   0  0  0  0  0  0  0  0  0  0  0  0
  -10.1106  -71.0395  -20.0795 C   0  0  0  0  0  0  0  0  0  0  0  0
  -10.2902  -71.5878  -18.8228 C   0  0  0  0  0  0  0  0  0  0  0  0
   -9.1562  -72.0341  -18.1846 C   0  0  0  0  0  0  0  0  0  0  0  0
   -7.9205  -71.9277  -18.7002 N   0  0  0  0  0  0  0  0  0  0  0  0
   -7.8434  -71.3829  -19.9218 C   0  0  0  0  0  0  0  0  0  0  0  0
   -8.8796  -70.9330  -20.6460 N   0  0  0  0  0  0  0  0  0  0  0  0
  1  2  3  0
  2  3  1  0
  3  4  1  6
  3  5  1  0
  5  6  2  0
  5  7  1  0
  7  8  1  6
  7  9  1  0
  9 10  2  0
 10 11  1  0
 11 12  2  0
 12 13  1  0
 13 14  2  0
 14  9  1  0
M  END
>  <SLURM_JOB_NAME>  (51) 
BulkDock.place:Flavi_NS5_RdRp:RdRp_knitwork_thumb_site_2_impure_split4000_batch001

>  <fragmenstein_error>  (51) 
['']

>  <HIPPO Compound ID>  (51) 
2681

>  <alias>  (51) 
None

>  <energy_score>  (51) 
-20.076153

>  <exports>  (51) 
['/opt/xchem-fragalysis-2/maxwin/BulkDock/OUTPUTS/RdRp_knitwork_thumb_site_2_impure_split4000_batch001_211014.sdf']

>  <fragmenstein_outcome>  (51) 
['acceptable']

>  <fragmenstein_mode>  (51) 
['expansion']

>  <HIPPO Pose ID>  (51) 
44297

>  <name>  (51) 
VGRJTUCBCKJLAN-OIBJUYFYSA-N

>  <fragmenstein_runtime>  (51) 
[2.823699951171875]

>  <csv_name>  (51) 
RdRp_knitwork_thumb_site_2_impure_split4000_batch001.csv

>  <inchikey>  (51) 
VGRJTUCBCKJLAN-OIBJUYFYSA-N

>  <original SMILES>  (51) 
C#C[C@H](C)C(=O)[C@H](O)c1ccncn1

>  <scratch_subdir>  (51) 
['/opt/xchem-fragalysis-2/maxwin/BulkDock/SCRATCH/211014/C2681-P17']

>  <tags>  (51) 
['Fragmenstein placed']

>  <distance_score>  (51) 
0.811594

>  <original ID>  (51) 
VGRJTUCBCKJLAN-OIBJUYFYSA-N

>  <ref_mols>  (51) 
d0174a,d0587a

>  <SLURM_JOB_ID>  (51) 
211014

>  <ref_pdb>  (51) 
d0174a

$$$$
44299
     RDKit          3D

 14 14  0  0  0  0  0  0  0  0999 V2000
  -14.7916  -70.1167  -23.2704 C   0  0  0  0  0  0  0  0  0  0  0  0
  -14.3833  -70.1534  -22.1430 C   0  0  0  0  0  0  0  0  0  0  0  0
  -13.8466  -70.1971  -20.7788 C   0  0  2  0  0  0  0  0  0  0  0  0
  -13.6582  -68.7894  -20.2547 C   0  0  0  0  0  0  0  0  0  0  0  0
  -12.5862  -71.0646  -20.6820 C   0  0  0  0  0  0  0  0  0  0  0  0
  -12.6997  -72.2795  -20.4782 O   0  0  0  0  0  0  0  0  0  0  0  0
  -11.2147  -70.3830  -20.8262 C   0  0  2  0  0  0  0  0  0  0  0  0
  -10.8374  -70.1494  -22.1774 O   0  0  0  0  0  0  0  0  0  0  0  0
  -10.0780  -71.0642  -20.0789 C   0  0  0  0  0  0  0  0  0  0  0  0
  -10.2484  -71.6133  -18.8211 C   0  0  0  0  0  0  0  0  0  0  0  0
   -9.1092  -72.0567  -18.1910 C   0  0  0  0  0  0  0  0  0  0  0  0
   -7.8773  -71.9472  -18.7159 N   0  0  0  0  0  0  0  0  0  0  0  0
   -7.8108  -71.4064  -19.9400 C   0  0  0  0  0  0  0  0  0  0  0  0
   -8.8523  -70.9580  -20.6566 N   0  0  0  0  0  0  0  0  0  0  0  0
  1  2  3  0
  2  3  1  0
  3  4  1  6
  3  5  1  0
  5  6  2  0
  5  7  1  0
  7  8  1  6
  7  9  1  0
  9 10  2  0
 10 11  1  0
 11 12  2  0
 12 13  1  0
 13 14  2  0
 14  9  1  0
M  END
>  <SLURM_JOB_NAME>  (52) 
BulkDock.place:Flavi_NS5_RdRp:RdRp_knitwork_thumb_site_2_impure_split4000_batch001

>  <fragmenstein_error>  (52) 
['']

>  <HIPPO Compound ID>  (52) 
2681

>  <alias>  (52) 
None

>  <energy_score>  (52) 
-19.885056

>  <exports>  (52) 
['/opt/xchem-fragalysis-2/maxwin/BulkDock/OUTPUTS/RdRp_knitwork_thumb_site_2_impure_split4000_batch001_211014.sdf']

>  <fragmenstein_outcome>  (52) 
['acceptable']

>  <fragmenstein_mode>  (52) 
['expansion']

>  <HIPPO Pose ID>  (52) 
44299

>  <name>  (52) 
VGRJTUCBCKJLAN-OIBJUYFYSA-N

>  <fragmenstein_runtime>  (52) 
[2.8497796058654785]

>  <csv_name>  (52) 
RdRp_knitwork_thumb_site_2_impure_split4000_batch001.csv

>  <inchikey>  (52) 
VGRJTUCBCKJLAN-OIBJUYFYSA-N

>  <original SMILES>  (52) 
C#C[C@H](C)C(=O)[C@H](O)c1ccncn1

>  <scratch_subdir>  (52) 
['/opt/xchem-fragalysis-2/maxwin/BulkDock/SCRATCH/211014/C2681-P48']

>  <tags>  (52) 
['Fragmenstein placed']

>  <distance_score>  (52) 
0.819396

>  <original ID>  (52) 
VGRJTUCBCKJLAN-OIBJUYFYSA-N

>  <ref_mols>  (52) 
d0174a,d0587a

>  <SLURM_JOB_ID>  (52) 
211014

>  <ref_pdb>  (52) 
d0587a

$$$$
44301
     RDKit          3D

 13 13  0  0  0  0  0  0  0  0999 V2000
  -15.3604  -69.2438  -22.7720 C   0  0  0  0  0  0  0  0  0  0  0  0
  -14.4923  -69.7776  -21.7326 C   0  0  0  0  0  0  0  0  0  0  0  0
  -13.7027  -70.2092  -20.9391 C   0  0  0  0  0  0  0  0  0  0  0  0
  -12.6462  -70.7059  -20.0845 C   0  0  0  0  0  0  0  0  0  0  0  0
  -12.9613  -71.2345  -19.0266 O   0  0  0  0  0  0  0  0  0  0  0  0
  -11.2245  -70.3255  -20.5558 C   0  0  2  0  0  0  0  0  0  0  0  0
  -10.9926  -70.4780  -21.9527 O   0  0  0  0  0  0  0  0  0  0  0  0
  -10.0707  -70.9402  -19.8143 C   0  0  0  0  0  0  0  0  0  0  0  0
  -10.0505  -71.1177  -18.4434 C   0  0  0  0  0  0  0  0  0  0  0  0
   -8.9760  -71.5437  -17.7459 N   0  0  0  0  0  0  0  0  0  0  0  0
   -7.8796  -71.8047  -18.4733 C   0  0  0  0  0  0  0  0  0  0  0  0
   -7.7607  -71.6480  -19.7958 N   0  0  0  0  0  0  0  0  0  0  0  0
   -8.8644  -71.2170  -20.4366 C   0  0  0  0  0  0  0  0  0  0  0  0
  1  2  1  0
  2  3  3  0
  3  4  1  0
  4  5  2  0
  4  6  1  0
  6  7  1  6
  6  8  1  0
  8  9  2  0
  9 10  1  0
 10 11  2  0
 11 12  1  0
 12 13  2  0
 13  8  1  0
M  END
>  <SLURM_JOB_NAME>  (53) 
BulkDock.place:Flavi_NS5_RdRp:RdRp_knitwork_thumb_site_2_impure_split4000_batch001

>  <fragmenstein_error>  (53) 
['']

>  <HIPPO Compound ID>  (53) 
2705

>  <alias>  (53) 
None

>  <energy_score>  (53) 
-22.611217

>  <exports>  (53) 
['/opt/xchem-fragalysis-2/maxwin/BulkDock/OUTPUTS/RdRp_knitwork_thumb_site_2_impure_split4000_batch001_211014.sdf']

>  <fragmenstein_outcome>  (53) 
['acceptable']

>  <fragmenstein_mode>  (53) 
['expansion']

>  <HIPPO Pose ID>  (53) 
44301

>  <name>  (53) 
WJDRKTYBMAXKMP-SECBINFHSA-N

>  <fragmenstein_runtime>  (53) 
[1.9300203323364258]

>  <csv_name>  (53) 
RdRp_knitwork_thumb_site_2_impure_split4000_batch001.csv

>  <inchikey>  (53) 
WJDRKTYBMAXKMP-SECBINFHSA-N

>  <original SMILES>  (53) 
CC#CC(=O)[C@H](O)c1cncnc1

>  <scratch_subdir>  (53) 
['/opt/xchem-fragalysis-2/maxwin/BulkDock/SCRATCH/211014/C2705-P17']

>  <tags>  (53) 
['Fragmenstein placed']

>  <distance_score>  (53) 
0.82847

>  <original ID>  (53) 
WJDRKTYBMAXKMP-SECBINFHSA-N

>  <ref_mols>  (53) 
d0174a,d0587a

>  <SLURM_JOB_ID>  (53) 
211014

>  <ref_pdb>  (53) 
d0174a

$$$$
44304
     RDKit          3D

 13 13  0  0  0  0  0  0  0  0999 V2000
  -15.4702  -69.7437  -22.7502 C   0  0  0  0  0  0  0  0  0  0  0  0
  -14.5279  -70.0478  -21.6878 C   0  0  0  0  0  0  0  0  0  0  0  0
  -13.6897  -70.3374  -20.8808 C   0  0  0  0  0  0  0  0  0  0  0  0
  -12.6116  -70.7317  -20.0063 C   0  0  0  0  0  0  0  0  0  0  0  0
  -12.9015  -71.2617  -18.9414 O   0  0  0  0  0  0  0  0  0  0  0  0
  -11.2065  -70.3112  -20.4808 C   0  0  2  0  0  0  0  0  0  0  0  0
  -11.0095  -70.3853  -21.8911 O   0  0  0  0  0  0  0  0  0  0  0  0
  -10.0144  -70.9144  -19.7929 C   0  0  0  0  0  0  0  0  0  0  0  0
   -9.9875  -71.2850  -18.4622 C   0  0  0  0  0  0  0  0  0  0  0  0
   -8.8843  -71.7222  -17.8185 N   0  0  0  0  0  0  0  0  0  0  0  0
   -7.7665  -71.7911  -18.5553 C   0  0  0  0  0  0  0  0  0  0  0  0
   -7.6527  -71.4304  -19.8376 N   0  0  0  0  0  0  0  0  0  0  0  0
   -8.7807  -70.9855  -20.4220 C   0  0  0  0  0  0  0  0  0  0  0  0
  1  2  1  0
  2  3  3  0
  3  4  1  0
  4  5  2  0
  4  6  1  0
  6  7  1  6
  6  8  1  0
  8  9  2  0
  9 10  1  0
 10 11  2  0
 11 12  1  0
 12 13  2  0
 13  8  1  0
M  END
>  <SLURM_JOB_NAME>  (54) 
BulkDock.place:Flavi_NS5_RdRp:RdRp_knitwork_thumb_site_2_impure_split4000_batch001

>  <fragmenstein_error>  (54) 
['']

>  <HIPPO Compound ID>  (54) 
2705

>  <alias>  (54) 
None

>  <energy_score>  (54) 
-21.409945

>  <exports>  (54) 
['/opt/xchem-fragalysis-2/maxwin/BulkDock/OUTPUTS/RdRp_knitwork_thumb_site_2_impure_split4000_batch001_211014.sdf']

>  <fragmenstein_outcome>  (54) 
['acceptable']

>  <fragmenstein_mode>  (54) 
['expansion']

>  <HIPPO Pose ID>  (54) 
44304

>  <name>  (54) 
WJDRKTYBMAXKMP-SECBINFHSA-N

>  <fragmenstein_runtime>  (54) 
[2.0777127742767334]

>  <csv_name>  (54) 
RdRp_knitwork_thumb_site_2_impure_split4000_batch001.csv

>  <inchikey>  (54) 
WJDRKTYBMAXKMP-SECBINFHSA-N

>  <original SMILES>  (54) 
CC#CC(=O)[C@H](O)c1cncnc1

>  <scratch_subdir>  (54) 
['/opt/xchem-fragalysis-2/maxwin/BulkDock/SCRATCH/211014/C2705-P48']

>  <tags>  (54) 
['Fragmenstein placed']

>  <distance_score>  (54) 
0.859642

>  <original ID>  (54) 
WJDRKTYBMAXKMP-SECBINFHSA-N

>  <ref_mols>  (54) 
d0174a,d0587a

>  <SLURM_JOB_ID>  (54) 
211014

>  <ref_pdb>  (54) 
d0587a

$$$$
44308
     RDKit          3D

 12 12  0  0  0  0  0  0  0  0999 V2000
  -14.3546  -69.2438  -22.5489 C   0  0  0  0  0  0  0  0  0  0  0  0
  -14.8117  -70.0387  -21.3397 C   0  0  0  0  0  0  0  0  0  0  0  0
  -13.7762  -70.2311  -20.3709 O   0  0  0  0  0  0  0  0  0  0  0  0
  -12.7197  -71.1111  -20.8050 C   0  0  0  0  0  0  0  0  0  0  0  0
  -11.3869  -70.3250  -20.8779 C   0  0  2  0  0  0  0  0  0  0  0  0
  -10.9745  -70.1650  -22.2396 O   0  0  0  0  0  0  0  0  0  0  0  0
  -10.2361  -70.8609  -20.0753 C   0  0  0  0  0  0  0  0  0  0  0  0
  -10.3687  -71.2713  -18.7618 C   0  0  0  0  0  0  0  0  0  0  0  0
   -9.3476  -71.7025  -17.9919 N   0  0  0  0  0  0  0  0  0  0  0  0
   -8.1414  -71.7068  -18.5795 C   0  0  0  0  0  0  0  0  0  0  0  0
   -7.8741  -71.2946  -19.8237 N   0  0  0  0  0  0  0  0  0  0  0  0
   -8.9321  -70.8657  -20.5399 C   0  0  0  0  0  0  0  0  0  0  0  0
  1  2  1  0
  2  3  1  0
  3  4  1  0
  4  5  1  0
  5  6  1  6
  5  7  1  0
  7  8  2  0
  8  9  1  0
  9 10  2  0
 10 11  1  0
 11 12  2  0
 12  7  1  0
M  END
>  <SLURM_JOB_NAME>  (55) 
BulkDock.place:Flavi_NS5_RdRp:RdRp_knitwork_thumb_site_2_impure_split4000_batch001

>  <fragmenstein_error>  (55) 
['']

>  <HIPPO Compound ID>  (55) 
2708

>  <alias>  (55) 
None

>  <energy_score>  (55) 
-22.539373

>  <exports>  (55) 
['/opt/xchem-fragalysis-2/maxwin/BulkDock/OUTPUTS/RdRp_knitwork_thumb_site_2_impure_split4000_batch001_211014.sdf']

>  <fragmenstein_outcome>  (55) 
['acceptable']

>  <fragmenstein_mode>  (55) 
['expansion']

>  <HIPPO Pose ID>  (55) 
44308

>  <name>  (55) 
RSSBBFCUEJCDTC-QMMMGPOBSA-N

>  <fragmenstein_runtime>  (55) 
[2.0042436122894287]

>  <csv_name>  (55) 
RdRp_knitwork_thumb_site_2_impure_split4000_batch001.csv

>  <inchikey>  (55) 
RSSBBFCUEJCDTC-QMMMGPOBSA-N

>  <original SMILES>  (55) 
CCOC[C@H](O)c1cncnc1

>  <scratch_subdir>  (55) 
['/opt/xchem-fragalysis-2/maxwin/BulkDock/SCRATCH/211014/C2708-P17']

>  <tags>  (55) 
['Fragmenstein placed']

>  <distance_score>  (55) 
0.679513

>  <original ID>  (55) 
RSSBBFCUEJCDTC-QMMMGPOBSA-N

>  <ref_mols>  (55) 
d0174a,d0587a

>  <SLURM_JOB_ID>  (55) 
211014

>  <ref_pdb>  (55) 
d0174a

$$$$
44310
     RDKit          3D

 12 12  0  0  0  0  0  0  0  0999 V2000
  -14.3970  -69.3706  -22.5395 C   0  0  0  0  0  0  0  0  0  0  0  0
  -14.8152  -70.1038  -21.2798 C   0  0  0  0  0  0  0  0  0  0  0  0
  -13.7572  -70.2181  -20.3269 O   0  0  0  0  0  0  0  0  0  0  0  0
  -12.6950  -71.1075  -20.7251 C   0  0  0  0  0  0  0  0  0  0  0  0
  -11.3710  -70.3108  -20.8262 C   0  0  2  0  0  0  0  0  0  0  0  0
  -10.9878  -70.1168  -22.1921 O   0  0  0  0  0  0  0  0  0  0  0  0
  -10.2025  -70.8546  -20.0565 C   0  0  0  0  0  0  0  0  0  0  0  0
  -10.2931  -71.1974  -18.7199 C   0  0  0  0  0  0  0  0  0  0  0  0
   -9.2575  -71.6368  -17.9745 N   0  0  0  0  0  0  0  0  0  0  0  0
   -8.0807  -71.7218  -18.6134 C   0  0  0  0  0  0  0  0  0  0  0  0
   -7.8541  -71.3854  -19.8885 N   0  0  0  0  0  0  0  0  0  0  0  0
   -8.9244  -70.9437  -20.5784 C   0  0  0  0  0  0  0  0  0  0  0  0
  1  2  1  0
  2  3  1  0
  3  4  1  0
  4  5  1  0
  5  6  1  6
  5  7  1  0
  7  8  2  0
  8  9  1  0
  9 10  2  0
 10 11  1  0
 11 12  2  0
 12  7  1  0
M  END
>  <SLURM_JOB_NAME>  (56) 
BulkDock.place:Flavi_NS5_RdRp:RdRp_knitwork_thumb_site_2_impure_split4000_batch001

>  <fragmenstein_error>  (56) 
['']

>  <HIPPO Compound ID>  (56) 
2708

>  <alias>  (56) 
None

>  <energy_score>  (56) 
-22.511894

>  <exports>  (56) 
['/opt/xchem-fragalysis-2/maxwin/BulkDock/OUTPUTS/RdRp_knitwork_thumb_site_2_impure_split4000_batch001_211014.sdf']

>  <fragmenstein_outcome>  (56) 
['acceptable']

>  <fragmenstein_mode>  (56) 
['expansion']

>  <HIPPO Pose ID>  (56) 
44310

>  <name>  (56) 
RSSBBFCUEJCDTC-QMMMGPOBSA-N

>  <fragmenstein_runtime>  (56) 
[1.9840388298034668]

>  <csv_name>  (56) 
RdRp_knitwork_thumb_site_2_impure_split4000_batch001.csv

>  <inchikey>  (56) 
RSSBBFCUEJCDTC-QMMMGPOBSA-N

>  <original SMILES>  (56) 
CCOC[C@H](O)c1cncnc1

>  <scratch_subdir>  (56) 
['/opt/xchem-fragalysis-2/maxwin/BulkDock/SCRATCH/211014/C2708-P48']

>  <tags>  (56) 
['Fragmenstein placed']

>  <distance_score>  (56) 
0.684915

>  <original ID>  (56) 
RSSBBFCUEJCDTC-QMMMGPOBSA-N

>  <ref_mols>  (56) 
d0174a,d0587a

>  <SLURM_JOB_ID>  (56) 
211014

>  <ref_pdb>  (56) 
d0587a

$$$$
44313
     RDKit          3D

 14 14  0  0  0  0  0  0  0  0999 V2000
  -14.5431  -69.5278  -22.5040 C   0  0  0  0  0  0  0  0  0  0  0  0
  -14.4154  -69.7217  -21.0157 C   0  0  0  0  0  0  0  0  0  0  0  0
  -15.4473  -69.0292  -20.1846 C   0  0  0  0  0  0  0  0  0  0  0  0
  -13.4530  -70.4264  -20.3995 C   0  0  0  0  0  0  0  0  0  0  0  0
  -12.3720  -71.1113  -21.1474 C   0  0  0  0  0  0  0  0  0  0  0  0
  -12.5944  -72.1474  -21.7685 O   0  0  0  0  0  0  0  0  0  0  0  0
  -11.0065  -70.4378  -21.1171 C   0  0  2  0  0  0  0  0  0  0  0  0
  -10.4776  -70.3610  -22.4360 O   0  0  0  0  0  0  0  0  0  0  0  0
   -9.9796  -71.0388  -20.2112 C   0  0  0  0  0  0  0  0  0  0  0  0
  -10.2645  -71.8037  -19.0985 C   0  0  0  0  0  0  0  0  0  0  0  0
   -9.3318  -72.2468  -18.2315 N   0  0  0  0  0  0  0  0  0  0  0  0
   -8.0621  -71.9285  -18.5258 C   0  0  0  0  0  0  0  0  0  0  0  0
   -7.6608  -71.1816  -19.5599 N   0  0  0  0  0  0  0  0  0  0  0  0
   -8.6362  -70.7489  -20.3800 C   0  0  0  0  0  0  0  0  0  0  0  0
  1  2  1  0
  2  3  1  0
  2  4  2  3
  4  5  1  0
  5  6  2  0
  5  7  1  0
  7  8  1  6
  7  9  1  0
  9 10  2  0
 10 11  1  0
 11 12  2  0
 12 13  1  0
 13 14  2  0
 14  9  1  0
M  END
>  <SLURM_JOB_NAME>  (57) 
BulkDock.place:Flavi_NS5_RdRp:RdRp_knitwork_thumb_site_2_impure_split4000_batch001

>  <fragmenstein_error>  (57) 
['']

>  <HIPPO Compound ID>  (57) 
2709

>  <alias>  (57) 
None

>  <energy_score>  (57) 
-30.390215

>  <exports>  (57) 
['/opt/xchem-fragalysis-2/maxwin/BulkDock/OUTPUTS/RdRp_knitwork_thumb_site_2_impure_split4000_batch001_211014.sdf']

>  <fragmenstein_outcome>  (57) 
['acceptable']

>  <fragmenstein_mode>  (57) 
['expansion']

>  <HIPPO Pose ID>  (57) 
44313

>  <name>  (57) 
VONUUPIKZXFROP-SNVBAGLBSA-N

>  <fragmenstein_runtime>  (57) 
[3.4184255599975586]

>  <csv_name>  (57) 
RdRp_knitwork_thumb_site_2_impure_split4000_batch001.csv

>  <inchikey>  (57) 
VONUUPIKZXFROP-SNVBAGLBSA-N

>  <original SMILES>  (57) 
CC(C)=CC(=O)[C@H](O)c1cncnc1

>  <scratch_subdir>  (57) 
['/opt/xchem-fragalysis-2/maxwin/BulkDock/SCRATCH/211014/C2709-P17']

>  <tags>  (57) 
['Fragmenstein placed']

>  <distance_score>  (57) 
0.930993

>  <original ID>  (57) 
VONUUPIKZXFROP-SNVBAGLBSA-N

>  <ref_mols>  (57) 
d0174a,d0587a

>  <SLURM_JOB_ID>  (57) 
211014

>  <ref_pdb>  (57) 
d0174a

$$$$
44315
     RDKit          3D

 14 14  0  0  0  0  0  0  0  0999 V2000
  -14.4990  -69.4468  -22.4572 C   0  0  0  0  0  0  0  0  0  0  0  0
  -14.4984  -69.7247  -20.9776 C   0  0  0  0  0  0  0  0  0  0  0  0
  -15.5905  -69.0590  -20.1971 C   0  0  0  0  0  0  0  0  0  0  0  0
  -13.5953  -70.4852  -20.3373 C   0  0  0  0  0  0  0  0  0  0  0  0
  -12.4684  -71.1369  -21.0496 C   0  0  0  0  0  0  0  0  0  0  0  0
  -12.6332  -72.2036  -21.6363 O   0  0  0  0  0  0  0  0  0  0  0  0
  -11.1340  -70.3995  -21.0239 C   0  0  2  0  0  0  0  0  0  0  0  0
  -10.6348  -70.2634  -22.3517 O   0  0  0  0  0  0  0  0  0  0  0  0
  -10.0691  -70.9933  -20.1548 C   0  0  0  0  0  0  0  0  0  0  0  0
  -10.3163  -71.7130  -19.0030 C   0  0  0  0  0  0  0  0  0  0  0  0
   -9.3531  -72.1627  -18.1730 N   0  0  0  0  0  0  0  0  0  0  0  0
   -8.0916  -71.8942  -18.5421 C   0  0  0  0  0  0  0  0  0  0  0  0
   -7.7238  -71.1902  -19.6177 N   0  0  0  0  0  0  0  0  0  0  0  0
   -8.7286  -70.7490  -20.3977 C   0  0  0  0  0  0  0  0  0  0  0  0
  1  2  1  0
  2  3  1  0
  2  4  2  3
  4  5  1  0
  5  6  2  0
  5  7  1  0
  7  8  1  6
  7  9  1  0
  9 10  2  0
 10 11  1  0
 11 12  2  0
 12 13  1  0
 13 14  2  0
 14  9  1  0
M  END
>  <SLURM_JOB_NAME>  (58) 
BulkDock.place:Flavi_NS5_RdRp:RdRp_knitwork_thumb_site_2_impure_split4000_batch001

>  <fragmenstein_error>  (58) 
['']

>  <HIPPO Compound ID>  (58) 
2709

>  <alias>  (58) 
None

>  <energy_score>  (58) 
-30.238044

>  <exports>  (58) 
['/opt/xchem-fragalysis-2/maxwin/BulkDock/OUTPUTS/RdRp_knitwork_thumb_site_2_impure_split4000_batch001_211014.sdf']

>  <fragmenstein_outcome>  (58) 
['acceptable']

>  <fragmenstein_mode>  (58) 
['expansion']

>  <HIPPO Pose ID>  (58) 
44315

>  <name>  (58) 
VONUUPIKZXFROP-SNVBAGLBSA-N

>  <fragmenstein_runtime>  (58) 
[3.5362038612365723]

>  <csv_name>  (58) 
RdRp_knitwork_thumb_site_2_impure_split4000_batch001.csv

>  <inchikey>  (58) 
VONUUPIKZXFROP-SNVBAGLBSA-N

>  <original SMILES>  (58) 
CC(C)=CC(=O)[C@H](O)c1cncnc1

>  <scratch_subdir>  (58) 
['/opt/xchem-fragalysis-2/maxwin/BulkDock/SCRATCH/211014/C2709-P48']

>  <tags>  (58) 
['Fragmenstein placed']

>  <distance_score>  (58) 
0.949787

>  <original ID>  (58) 
VONUUPIKZXFROP-SNVBAGLBSA-N

>  <ref_mols>  (58) 
d0174a,d0587a

>  <SLURM_JOB_ID>  (58) 
211014

>  <ref_pdb>  (58) 
d0587a

$$$$
44318
     RDKit          3D

 15 15  0  0  0  0  0  0  0  0999 V2000
  -14.9949  -71.4415  -22.5658 C   0  0  0  0  0  0  0  0  0  0  0  0
  -14.9952  -69.9177  -22.5218 C   0  0  0  0  0  0  0  0  0  0  0  0
  -14.1410  -69.3252  -23.6329 C   0  0  0  0  0  0  0  0  0  0  0  0
  -14.6897  -69.4353  -21.2099 O   0  0  0  0  0  0  0  0  0  0  0  0
  -13.3276  -69.3806  -20.8224 C   0  0  0  0  0  0  0  0  0  0  0  0
  -12.6827  -70.7055  -20.4296 C   0  0  0  0  0  0  0  0  0  0  0  0
  -13.2340  -71.4477  -19.6070 O   0  0  0  0  0  0  0  0  0  0  0  0
  -11.3276  -71.0802  -21.0736 C   0  0  1  0  0  0  0  0  0  0  0  0
  -10.9582  -70.2845  -22.1920 O   0  0  0  0  0  0  0  0  0  0  0  0
  -10.1668  -71.1082  -20.1164 C   0  0  0  0  0  0  0  0  0  0  0  0
  -10.2408  -71.6442  -18.8435 C   0  0  0  0  0  0  0  0  0  0  0  0
   -9.1850  -71.7709  -18.0106 N   0  0  0  0  0  0  0  0  0  0  0  0
   -8.0030  -71.3787  -18.5060 C   0  0  0  0  0  0  0  0  0  0  0  0
   -7.7977  -70.8433  -19.7136 N   0  0  0  0  0  0  0  0  0  0  0  0
   -8.8904  -70.7201  -20.4920 C   0  0  0  0  0  0  0  0  0  0  0  0
  1  2  1  0
  2  3  1  0
  2  4  1  0
  4  5  1  0
  5  6  1  0
  6  7  2  0
  6  8  1  0
  8  9  1  6
  8 10  1  0
 10 11  2  0
 11 12  1  0
 12 13  2  0
 13 14  1  0
 14 15  2  0
 15 10  1  0
M  END
>  <SLURM_JOB_NAME>  (59) 
BulkDock.place:Flavi_NS5_RdRp:RdRp_knitwork_thumb_site_2_impure_split4000_batch001

>  <fragmenstein_error>  (59) 
['']

>  <HIPPO Compound ID>  (59) 
2742

>  <alias>  (59) 
None

>  <energy_score>  (59) 
-236.066503

>  <exports>  (59) 
['/opt/xchem-fragalysis-2/maxwin/BulkDock/OUTPUTS/RdRp_knitwork_thumb_site_2_impure_split4000_batch001_211014.sdf']

>  <fragmenstein_outcome>  (59) 
['acceptable']

>  <fragmenstein_mode>  (59) 
['expansion']

>  <HIPPO Pose ID>  (59) 
44318

>  <name>  (59) 
DFPHLCWZVFHCED-JTQLQIEISA-N

>  <fragmenstein_runtime>  (59) 
[2.4092395305633545]

>  <csv_name>  (59) 
RdRp_knitwork_thumb_site_2_impure_split4000_batch001.csv

>  <inchikey>  (59) 
DFPHLCWZVFHCED-JTQLQIEISA-N

>  <original SMILES>  (59) 
CC(C)OCC(=O)[C@@H](O)c1cncnc1

>  <scratch_subdir>  (59) 
['/opt/xchem-fragalysis-2/maxwin/BulkDock/SCRATCH/211014/C2742-P17']

>  <tags>  (59) 
['Fragmenstein placed']

>  <distance_score>  (59) 
0.920457

>  <original ID>  (59) 
DFPHLCWZVFHCED-JTQLQIEISA-N

>  <ref_mols>  (59) 
d0174a,d0587a

>  <SLURM_JOB_ID>  (59) 
211014

>  <ref_pdb>  (59) 
d0174a

$$$$
44319
     RDKit          3D

 15 15  0  0  0  0  0  0  0  0999 V2000
  -16.3730  -70.5432  -23.0634 C   0  0  0  0  0  0  0  0  0  0  0  0
  -15.0322  -69.8523  -22.8361 C   0  0  0  0  0  0  0  0  0  0  0  0
  -14.0688  -70.1864  -23.9692 C   0  0  0  0  0  0  0  0  0  0  0  0
  -14.5114  -70.3541  -21.6071 O   0  0  0  0  0  0  0  0  0  0  0  0
  -13.6274  -69.4610  -20.9446 C   0  0  0  0  0  0  0  0  0  0  0  0
  -12.6626  -70.3063  -20.1354 C   0  0  0  0  0  0  0  0  0  0  0  0
  -12.9230  -70.5678  -18.9542 O   0  0  0  0  0  0  0  0  0  0  0  0
  -11.4492  -70.9095  -20.8888 C   0  0  1  0  0  0  0  0  0  0  0  0
  -11.0721  -70.1768  -22.0520 O   0  0  0  0  0  0  0  0  0  0  0  0
  -10.2148  -71.0764  -20.0415 C   0  0  0  0  0  0  0  0  0  0  0  0
  -10.2162  -71.7652  -18.8423 C   0  0  0  0  0  0  0  0  0  0  0  0
   -9.1153  -71.9888  -18.0924 N   0  0  0  0  0  0  0  0  0  0  0  0
   -7.9642  -71.5229  -18.5957 C   0  0  0  0  0  0  0  0  0  0  0  0
   -7.8270  -70.8409  -19.7377 N   0  0  0  0  0  0  0  0  0  0  0  0
   -8.9629  -70.6318  -20.4337 C   0  0  0  0  0  0  0  0  0  0  0  0
  1  2  1  0
  2  3  1  0
  2  4  1  0
  4  5  1  0
  5  6  1  0
  6  7  2  0
  6  8  1  0
  8  9  1  6
  8 10  1  0
 10 11  2  0
 11 12  1  0
 12 13  2  0
 13 14  1  0
 14 15  2  0
 15 10  1  0
M  END
>  <SLURM_JOB_NAME>  (60) 
BulkDock.place:Flavi_NS5_RdRp:RdRp_knitwork_thumb_site_2_impure_split4000_batch001

>  <fragmenstein_error>  (60) 
['']

>  <HIPPO Compound ID>  (60) 
2742

>  <alias>  (60) 
None

>  <energy_score>  (60) 
-241.499871

>  <exports>  (60) 
['/opt/xchem-fragalysis-2/maxwin/BulkDock/OUTPUTS/RdRp_knitwork_thumb_site_2_impure_split4000_batch001_211014.sdf']

>  <fragmenstein_outcome>  (60) 
['acceptable']

>  <fragmenstein_mode>  (60) 
['expansion']

>  <HIPPO Pose ID>  (60) 
44319

>  <name>  (60) 
DFPHLCWZVFHCED-JTQLQIEISA-N

>  <fragmenstein_runtime>  (60) 
[2.5461184978485107]

>  <csv_name>  (60) 
RdRp_knitwork_thumb_site_2_impure_split4000_batch001.csv

>  <inchikey>  (60) 
DFPHLCWZVFHCED-JTQLQIEISA-N

>  <original SMILES>  (60) 
CC(C)OCC(=O)[C@@H](O)c1cncnc1

>  <scratch_subdir>  (60) 
['/opt/xchem-fragalysis-2/maxwin/BulkDock/SCRATCH/211014/C2742-P48']

>  <tags>  (60) 
['Fragmenstein placed']

>  <distance_score>  (60) 
0.921091

>  <original ID>  (60) 
DFPHLCWZVFHCED-JTQLQIEISA-N

>  <ref_mols>  (60) 
d0174a,d0587a

>  <SLURM_JOB_ID>  (60) 
211014

>  <ref_pdb>  (60) 
d0587a

$$$$
44320
     RDKit          3D

 13 13  0  0  0  0  0  0  0  0999 V2000
  -10.9905  -71.4862  -23.0632 C   0  0  0  0  0  0  0  0  0  0  0  0
  -11.0993  -70.2701  -22.1493 C   0  0  0  0  0  0  0  0  0  0  0  0
  -11.4968  -70.5483  -20.6824 C   0  0  1  0  0  0  0  0  0  0  0  0
  -11.6929  -69.2615  -20.0498 O   0  0  0  0  0  0  0  0  0  0  0  0
  -12.8503  -71.3113  -20.5505 C   0  0  0  0  0  0  0  0  0  0  0  0
  -13.9504  -70.3943  -20.3112 O   0  0  0  0  0  0  0  0  0  0  0  0
  -14.6282  -69.9950  -21.5013 C   0  0  0  0  0  0  0  0  0  0  0  0
  -10.3328  -71.1662  -19.9009 C   0  0  0  0  0  0  0  0  0  0  0  0
  -10.4567  -71.4193  -18.5446 C   0  0  0  0  0  0  0  0  0  0  0  0
   -9.3253  -71.8435  -17.8851 C   0  0  0  0  0  0  0  0  0  0  0  0
   -8.1301  -71.9969  -18.4759 N   0  0  0  0  0  0  0  0  0  0  0  0
   -8.0977  -71.7165  -19.7847 C   0  0  0  0  0  0  0  0  0  0  0  0
   -9.1422  -71.3247  -20.5284 N   0  0  0  0  0  0  0  0  0  0  0  0
  1  2  1  0
  2  3  1  0
  3  4  1  1
  3  5  1  0
  5  6  1  0
  6  7  1  0
  3  8  1  0
  8  9  2  0
  9 10  1  0
 10 11  2  0
 11 12  1  0
 12 13  2  0
 13  8  1  0
M  END
>  <SLURM_JOB_NAME>  (61) 
BulkDock.place:Flavi_NS5_RdRp:RdRp_knitwork_thumb_site_2_impure_split4000_batch001

>  <fragmenstein_error>  (61) 
['']

>  <HIPPO Compound ID>  (61) 
2780

>  <alias>  (61) 
None

>  <energy_score>  (61) 
-23.020275

>  <exports>  (61) 
['/opt/xchem-fragalysis-2/maxwin/BulkDock/OUTPUTS/RdRp_knitwork_thumb_site_2_impure_split4000_batch001_211014.sdf']

>  <fragmenstein_outcome>  (61) 
['acceptable']

>  <fragmenstein_mode>  (61) 
['expansion']

>  <HIPPO Pose ID>  (61) 
44320

>  <name>  (61) 
ZZXQKACLJJRADR-SECBINFHSA-N

>  <fragmenstein_runtime>  (61) 
[2.0701420307159424]

>  <csv_name>  (61) 
RdRp_knitwork_thumb_site_2_impure_split4000_batch001.csv

>  <inchikey>  (61) 
ZZXQKACLJJRADR-SECBINFHSA-N

>  <original SMILES>  (61) 
CC[C@@](O)(COC)c1ccncn1

>  <scratch_subdir>  (61) 
['/opt/xchem-fragalysis-2/maxwin/BulkDock/SCRATCH/211014/C2780-P17']

>  <tags>  (61) 
['Fragmenstein placed']

>  <distance_score>  (61) 
0.799327

>  <original ID>  (61) 
ZZXQKACLJJRADR-SECBINFHSA-N

>  <ref_mols>  (61) 
d0174a,d0587a

>  <SLURM_JOB_ID>  (61) 
211014

>  <ref_pdb>  (61) 
d0174a

$$$$
44321
     RDKit          3D

 13 13  0  0  0  0  0  0  0  0999 V2000
  -11.0960  -71.5222  -23.0265 C   0  0  0  0  0  0  0  0  0  0  0  0
  -11.1294  -70.3109  -22.1012 C   0  0  0  0  0  0  0  0  0  0  0  0
  -11.5189  -70.5854  -20.6334 C   0  0  1  0  0  0  0  0  0  0  0  0
  -11.6908  -69.2971  -19.9983 O   0  0  0  0  0  0  0  0  0  0  0  0
  -12.8827  -71.3220  -20.4830 C   0  0  0  0  0  0  0  0  0  0  0  0
  -13.9703  -70.3748  -20.3206 O   0  0  0  0  0  0  0  0  0  0  0  0
  -14.6505  -70.0682  -21.5346 C   0  0  0  0  0  0  0  0  0  0  0  0
  -10.3557  -71.2197  -19.8640 C   0  0  0  0  0  0  0  0  0  0  0  0
  -10.4559  -71.4306  -18.4986 C   0  0  0  0  0  0  0  0  0  0  0  0
   -9.3194  -71.8576  -17.8502 C   0  0  0  0  0  0  0  0  0  0  0  0
   -8.1397  -72.0518  -18.4605 N   0  0  0  0  0  0  0  0  0  0  0  0
   -8.1318  -71.8176  -19.7787 C   0  0  0  0  0  0  0  0  0  0  0  0
   -9.1838  -71.4283  -20.5127 N   0  0  0  0  0  0  0  0  0  0  0  0
  1  2  1  0
  2  3  1  0
  3  4  1  1
  3  5  1  0
  5  6  1  0
  6  7  1  0
  3  8  1  0
  8  9  2  0
  9 10  1  0
 10 11  2  0
 11 12  1  0
 12 13  2  0
 13  8  1  0
M  END
>  <SLURM_JOB_NAME>  (62) 
BulkDock.place:Flavi_NS5_RdRp:RdRp_knitwork_thumb_site_2_impure_split4000_batch001

>  <fragmenstein_error>  (62) 
['']

>  <HIPPO Compound ID>  (62) 
2780

>  <alias>  (62) 
None

>  <energy_score>  (62) 
-23.4101

>  <exports>  (62) 
['/opt/xchem-fragalysis-2/maxwin/BulkDock/OUTPUTS/RdRp_knitwork_thumb_site_2_impure_split4000_batch001_211014.sdf']

>  <fragmenstein_outcome>  (62) 
['acceptable']

>  <fragmenstein_mode>  (62) 
['expansion']

>  <HIPPO Pose ID>  (62) 
44321

>  <name>  (62) 
ZZXQKACLJJRADR-SECBINFHSA-N

>  <fragmenstein_runtime>  (62) 
[2.0244853496551514]

>  <csv_name>  (62) 
RdRp_knitwork_thumb_site_2_impure_split4000_batch001.csv

>  <inchikey>  (62) 
ZZXQKACLJJRADR-SECBINFHSA-N

>  <original SMILES>  (62) 
CC[C@@](O)(COC)c1ccncn1

>  <scratch_subdir>  (62) 
['/opt/xchem-fragalysis-2/maxwin/BulkDock/SCRATCH/211014/C2780-P48']

>  <tags>  (62) 
['Fragmenstein placed']

>  <distance_score>  (62) 
0.938079

>  <original ID>  (62) 
ZZXQKACLJJRADR-SECBINFHSA-N

>  <ref_mols>  (62) 
d0174a,d0587a

>  <SLURM_JOB_ID>  (62) 
211014

>  <ref_pdb>  (62) 
d0587a

$$$$
44336
     RDKit          3D

 14 14  0  0  0  0  0  0  0  0999 V2000
  -13.5476  -69.3270  -24.0109 C   0  0  0  0  0  0  0  0  0  0  0  0
  -14.5889  -70.4628  -23.0557 S   0  0  0  0  0  0  0  0  0  0  0  0
  -14.8113  -69.5064  -21.5282 C   0  0  0  0  0  0  0  0  0  0  0  0
  -13.5431  -69.2383  -20.7232 C   0  0  0  0  0  0  0  0  0  0  0  0
  -12.7004  -70.4357  -20.2476 C   0  0  1  0  0  0  0  0  0  0  0  0
  -13.4181  -71.6545  -20.2987 O   0  0  0  0  0  0  0  0  0  0  0  0
  -11.3077  -70.5112  -20.9096 C   0  0  0  0  0  0  0  0  0  0  0  0
  -11.0746  -70.1049  -22.0451 O   0  0  0  0  0  0  0  0  0  0  0  0
  -10.1834  -71.0530  -20.0929 C   0  0  0  0  0  0  0  0  0  0  0  0
  -10.3949  -71.9623  -19.0794 C   0  0  0  0  0  0  0  0  0  0  0  0
   -9.2735  -72.3254  -18.3745 C   0  0  0  0  0  0  0  0  0  0  0  0
   -8.0443  -71.8434  -18.6306 N   0  0  0  0  0  0  0  0  0  0  0  0
   -7.9457  -70.9899  -19.6604 C   0  0  0  0  0  0  0  0  0  0  0  0
   -8.9647  -70.5579  -20.4066 N   0  0  0  0  0  0  0  0  0  0  0  0
  1  2  1  0
  2  3  1  0
  3  4  1  0
  4  5  1  0
  5  6  1  6
  5  7  1  0
  7  8  2  0
  7  9  1  0
  9 10  2  0
 10 11  1  0
 11 12  2  0
 12 13  1  0
 13 14  2  0
 14  9  1  0
M  END
>  <SLURM_JOB_NAME>  (63) 
BulkDock.place:Flavi_NS5_RdRp:RdRp_knitwork_thumb_site_2_impure_split4000_batch001

>  <fragmenstein_error>  (63) 
['']

>  <HIPPO Compound ID>  (63) 
2847

>  <alias>  (63) 
None

>  <energy_score>  (63) 
-12.537208

>  <exports>  (63) 
['/opt/xchem-fragalysis-2/maxwin/BulkDock/OUTPUTS/RdRp_knitwork_thumb_site_2_impure_split4000_batch001_211014.sdf']

>  <fragmenstein_outcome>  (63) 
['acceptable']

>  <fragmenstein_mode>  (63) 
['expansion']

>  <HIPPO Pose ID>  (63) 
44336

>  <name>  (63) 
SXAHLXNIZQPHPK-MRVPVSSYSA-N

>  <fragmenstein_runtime>  (63) 
[2.786536455154419]

>  <csv_name>  (63) 
RdRp_knitwork_thumb_site_2_impure_split4000_batch001.csv

>  <inchikey>  (63) 
SXAHLXNIZQPHPK-MRVPVSSYSA-N

>  <original SMILES>  (63) 
CSCC[C@@H](O)C(=O)c1ccncn1

>  <scratch_subdir>  (63) 
['/opt/xchem-fragalysis-2/maxwin/BulkDock/SCRATCH/211014/C2847-P17']

>  <tags>  (63) 
['Fragmenstein placed']

>  <distance_score>  (63) 
0.948602

>  <original ID>  (63) 
SXAHLXNIZQPHPK-MRVPVSSYSA-N

>  <ref_mols>  (63) 
d0174a,d0587a

>  <SLURM_JOB_ID>  (63) 
211014

>  <ref_pdb>  (63) 
d0174a

$$$$
44337
     RDKit          3D

 14 14  0  0  0  0  0  0  0  0999 V2000
  -13.2566  -69.6898  -24.0285 C   0  0  0  0  0  0  0  0  0  0  0  0
  -14.4836  -70.6130  -23.0609 S   0  0  0  0  0  0  0  0  0  0  0  0
  -14.7315  -69.5082  -21.6408 C   0  0  0  0  0  0  0  0  0  0  0  0
  -13.5151  -69.2272  -20.7630 C   0  0  0  0  0  0  0  0  0  0  0  0
  -12.6752  -70.4041  -20.2384 C   0  0  1  0  0  0  0  0  0  0  0  0
  -13.3893  -71.6254  -20.2526 O   0  0  0  0  0  0  0  0  0  0  0  0
  -11.2734  -70.4861  -20.8823 C   0  0  0  0  0  0  0  0  0  0  0  0
  -11.0203  -70.0654  -22.0089 O   0  0  0  0  0  0  0  0  0  0  0  0
  -10.1618  -71.0402  -20.0557 C   0  0  0  0  0  0  0  0  0  0  0  0
  -10.3914  -71.9121  -19.0139 C   0  0  0  0  0  0  0  0  0  0  0  0
   -9.2761  -72.2828  -18.3029 C   0  0  0  0  0  0  0  0  0  0  0  0
   -8.0358  -71.8411  -18.5781 N   0  0  0  0  0  0  0  0  0  0  0  0
   -7.9205  -71.0227  -19.6339 C   0  0  0  0  0  0  0  0  0  0  0  0
   -8.9309  -70.5898  -20.3903 N   0  0  0  0  0  0  0  0  0  0  0  0
  1  2  1  0
  2  3  1  0
  3  4  1  0
  4  5  1  0
  5  6  1  6
  5  7  1  0
  7  8  2  0
  7  9  1  0
  9 10  2  0
 10 11  1  0
 11 12  2  0
 12 13  1  0
 13 14  2  0
 14  9  1  0
M  END
>  <SLURM_JOB_NAME>  (64) 
BulkDock.place:Flavi_NS5_RdRp:RdRp_knitwork_thumb_site_2_impure_split4000_batch001

>  <fragmenstein_error>  (64) 
['']

>  <HIPPO Compound ID>  (64) 
2847

>  <alias>  (64) 
None

>  <energy_score>  (64) 
-11.960696

>  <exports>  (64) 
['/opt/xchem-fragalysis-2/maxwin/BulkDock/OUTPUTS/RdRp_knitwork_thumb_site_2_impure_split4000_batch001_211014.sdf']

>  <fragmenstein_outcome>  (64) 
['acceptable']

>  <fragmenstein_mode>  (64) 
['expansion']

>  <HIPPO Pose ID>  (64) 
44337

>  <name>  (64) 
SXAHLXNIZQPHPK-MRVPVSSYSA-N

>  <fragmenstein_runtime>  (64) 
[2.6088521480560303]

>  <csv_name>  (64) 
RdRp_knitwork_thumb_site_2_impure_split4000_batch001.csv

>  <inchikey>  (64) 
SXAHLXNIZQPHPK-MRVPVSSYSA-N

>  <original SMILES>  (64) 
CSCC[C@@H](O)C(=O)c1ccncn1

>  <scratch_subdir>  (64) 
['/opt/xchem-fragalysis-2/maxwin/BulkDock/SCRATCH/211014/C2847-P48']

>  <tags>  (64) 
['Fragmenstein placed']

>  <distance_score>  (64) 
0.948267

>  <original ID>  (64) 
SXAHLXNIZQPHPK-MRVPVSSYSA-N

>  <ref_mols>  (64) 
d0174a,d0587a

>  <SLURM_JOB_ID>  (64) 
211014

>  <ref_pdb>  (64) 
d0587a

$$$$
44339
     RDKit          3D

 14 14  0  0  0  0  0  0  0  0999 V2000
  -14.4148  -71.1383  -23.3378 C   0  0  0  0  0  0  0  0  0  0  0  0
  -15.0729  -69.9192  -22.7179 C   0  0  0  0  0  0  0  0  0  0  0  0
  -14.8685  -69.8539  -21.3053 O   0  0  0  0  0  0  0  0  0  0  0  0
  -13.5530  -69.4798  -20.9452 C   0  0  0  0  0  0  0  0  0  0  0  0
  -12.5755  -70.6124  -20.5869 C   0  0  0  0  0  0  0  0  0  0  0  0
  -12.9529  -71.6917  -20.1316 O   0  0  0  0  0  0  0  0  0  0  0  0
  -11.0974  -70.2270  -20.7396 C   0  0  2  0  0  0  0  0  0  0  0  0
  -10.7204  -70.0618  -22.0991 O   0  0  0  0  0  0  0  0  0  0  0  0
  -10.0918  -71.0403  -19.9844 C   0  0  0  0  0  0  0  0  0  0  0  0
  -10.1870  -71.2193  -18.6161 C   0  0  0  0  0  0  0  0  0  0  0  0
   -9.2203  -71.7711  -17.8559 N   0  0  0  0  0  0  0  0  0  0  0  0
   -8.1288  -72.1814  -18.5192 C   0  0  0  0  0  0  0  0  0  0  0  0
   -7.9226  -72.0724  -19.8378 N   0  0  0  0  0  0  0  0  0  0  0  0
   -8.9234  -71.5173  -20.5458 C   0  0  0  0  0  0  0  0  0  0  0  0
  1  2  1  0
  2  3  1  0
  3  4  1  0
  4  5  1  0
  5  6  2  0
  5  7  1  0
  7  8  1  6
  7  9  1  0
  9 10  2  0
 10 11  1  0
 11 12  2  0
 12 13  1  0
 13 14  2  0
 14  9  1  0
M  END
>  <SLURM_JOB_NAME>  (65) 
BulkDock.place:Flavi_NS5_RdRp:RdRp_knitwork_thumb_site_2_impure_split4000_batch001

>  <fragmenstein_error>  (65) 
['']

>  <HIPPO Compound ID>  (65) 
2849

>  <alias>  (65) 
None

>  <energy_score>  (65) 
-234.162564

>  <exports>  (65) 
['/opt/xchem-fragalysis-2/maxwin/BulkDock/OUTPUTS/RdRp_knitwork_thumb_site_2_impure_split4000_batch001_211014.sdf']

>  <fragmenstein_outcome>  (65) 
['acceptable']

>  <fragmenstein_mode>  (65) 
['expansion']

>  <HIPPO Pose ID>  (65) 
44339

>  <name>  (65) 
NHVRVAFBFKZDQM-SECBINFHSA-N

>  <fragmenstein_runtime>  (65) 
[3.3220951557159424]

>  <csv_name>  (65) 
RdRp_knitwork_thumb_site_2_impure_split4000_batch001.csv

>  <inchikey>  (65) 
NHVRVAFBFKZDQM-SECBINFHSA-N

>  <original SMILES>  (65) 
CCOCC(=O)[C@H](O)c1cncnc1

>  <scratch_subdir>  (65) 
['/opt/xchem-fragalysis-2/maxwin/BulkDock/SCRATCH/211014/C2849-P17']

>  <tags>  (65) 
['Fragmenstein placed']

>  <distance_score>  (65) 
0.929984

>  <original ID>  (65) 
NHVRVAFBFKZDQM-SECBINFHSA-N

>  <ref_mols>  (65) 
d0174a,d0587a

>  <SLURM_JOB_ID>  (65) 
211014

>  <ref_pdb>  (65) 
d0174a

$$$$
44340
     RDKit          3D

 14 14  0  0  0  0  0  0  0  0999 V2000
  -16.2060  -70.5643  -23.2515 C   0  0  0  0  0  0  0  0  0  0  0  0
  -14.8281  -70.1467  -22.7752 C   0  0  0  0  0  0  0  0  0  0  0  0
  -14.8717  -69.9897  -21.3560 O   0  0  0  0  0  0  0  0  0  0  0  0
  -13.6053  -69.6303  -20.8356 C   0  0  0  0  0  0  0  0  0  0  0  0
  -12.5475  -70.7453  -20.7228 C   0  0  0  0  0  0  0  0  0  0  0  0
  -12.8438  -71.9326  -20.5981 O   0  0  0  0  0  0  0  0  0  0  0  0
  -11.1061  -70.2337  -20.7274 C   0  0  2  0  0  0  0  0  0  0  0  0
  -10.6541  -69.9239  -22.0391 O   0  0  0  0  0  0  0  0  0  0  0  0
  -10.0989  -71.0430  -19.9731 C   0  0  0  0  0  0  0  0  0  0  0  0
  -10.1063  -71.0878  -18.5907 C   0  0  0  0  0  0  0  0  0  0  0  0
   -9.1365  -71.6552  -17.8479 N   0  0  0  0  0  0  0  0  0  0  0  0
   -8.1371  -72.2210  -18.5422 C   0  0  0  0  0  0  0  0  0  0  0  0
   -8.0299  -72.2592  -19.8772 N   0  0  0  0  0  0  0  0  0  0  0  0
   -9.0341  -71.6886  -20.5669 C   0  0  0  0  0  0  0  0  0  0  0  0
  1  2  1  0
  2  3  1  0
  3  4  1  0
  4  5  1  0
  5  6  2  0
  5  7  1  0
  7  8  1  6
  7  9  1  0
  9 10  2  0
 10 11  1  0
 11 12  2  0
 12 13  1  0
 13 14  2  0
 14  9  1  0
M  END
>  <SLURM_JOB_NAME>  (66) 
BulkDock.place:Flavi_NS5_RdRp:RdRp_knitwork_thumb_site_2_impure_split4000_batch001

>  <fragmenstein_error>  (66) 
['']

>  <HIPPO Compound ID>  (66) 
2849

>  <alias>  (66) 
None

>  <energy_score>  (66) 
-236.851937

>  <exports>  (66) 
['/opt/xchem-fragalysis-2/maxwin/BulkDock/OUTPUTS/RdRp_knitwork_thumb_site_2_impure_split4000_batch001_211014.sdf']

>  <fragmenstein_outcome>  (66) 
['acceptable']

>  <fragmenstein_mode>  (66) 
['expansion']

>  <HIPPO Pose ID>  (66) 
44340

>  <name>  (66) 
NHVRVAFBFKZDQM-SECBINFHSA-N

>  <fragmenstein_runtime>  (66) 
[2.7140040397644043]

>  <csv_name>  (66) 
RdRp_knitwork_thumb_site_2_impure_split4000_batch001.csv

>  <inchikey>  (66) 
NHVRVAFBFKZDQM-SECBINFHSA-N

>  <original SMILES>  (66) 
CCOCC(=O)[C@H](O)c1cncnc1

>  <scratch_subdir>  (66) 
['/opt/xchem-fragalysis-2/maxwin/BulkDock/SCRATCH/211014/C2849-P48']

>  <tags>  (66) 
['Fragmenstein placed']

>  <distance_score>  (66) 
0.875293

>  <original ID>  (66) 
NHVRVAFBFKZDQM-SECBINFHSA-N

>  <ref_mols>  (66) 
d0174a,d0587a

>  <SLURM_JOB_ID>  (66) 
211014

>  <ref_pdb>  (66) 
d0587a

$$$$
44343
     RDKit          3D

 14 14  0  0  0  0  0  0  0  0999 V2000
  -15.1335  -70.2313  -21.1227 C   0  0  0  0  0  0  0  0  0  0  0  0
  -13.6991  -70.2137  -20.5597 C   0  0  0  0  0  0  0  0  0  0  0  0
  -13.2813  -68.7509  -20.4726 C   0  0  0  0  0  0  0  0  0  0  0  0
  -12.7175  -71.0769  -21.4072 C   0  0  1  0  0  0  0  0  0  0  0  0
  -12.9040  -72.5780  -21.1693 C   0  0  0  0  0  0  0  0  0  0  0  0
  -13.0861  -70.8895  -22.7994 O   0  0  0  0  0  0  0  0  0  0  0  0
  -11.2237  -70.6551  -21.3461 C   0  0  0  0  0  0  0  0  0  0  0  0
  -10.7485  -70.0063  -22.2876 O   0  0  0  0  0  0  0  0  0  0  0  0
  -10.3186  -70.9974  -20.2049 C   0  0  0  0  0  0  0  0  0  0  0  0
  -10.7641  -71.3743  -18.9597 C   0  0  0  0  0  0  0  0  0  0  0  0
   -9.7801  -71.6299  -18.0312 C   0  0  0  0  0  0  0  0  0  0  0  0
   -8.4644  -71.5124  -18.2791 N   0  0  0  0  0  0  0  0  0  0  0  0
   -8.1347  -71.1305  -19.5196 C   0  0  0  0  0  0  0  0  0  0  0  0
   -9.0025  -70.8684  -20.4984 N   0  0  0  0  0  0  0  0  0  0  0  0
  1  2  1  0
  2  3  1  0
  2  4  1  0
  4  5  1  1
  4  6  1  0
  4  7  1  0
  7  8  2  0
  7  9  1  0
  9 10  2  0
 10 11  1  0
 11 12  2  0
 12 13  1  0
 13 14  2  0
 14  9  1  0
M  END
>  <SLURM_JOB_NAME>  (67) 
BulkDock.place:Flavi_NS5_RdRp:RdRp_knitwork_thumb_site_2_impure_split4000_batch001

>  <fragmenstein_error>  (67) 
['']

>  <HIPPO Compound ID>  (67) 
2850

>  <alias>  (67) 
None

>  <energy_score>  (67) 
-20.564268

>  <exports>  (67) 
['/opt/xchem-fragalysis-2/maxwin/BulkDock/OUTPUTS/RdRp_knitwork_thumb_site_2_impure_split4000_batch001_211014.sdf']

>  <fragmenstein_outcome>  (67) 
['acceptable']

>  <fragmenstein_mode>  (67) 
['expansion']

>  <HIPPO Pose ID>  (67) 
44343

>  <name>  (67) 
SNBKRVHNTASRKH-SNVBAGLBSA-N

>  <fragmenstein_runtime>  (67) 
[6.185962915420532]

>  <csv_name>  (67) 
RdRp_knitwork_thumb_site_2_impure_split4000_batch001.csv

>  <inchikey>  (67) 
SNBKRVHNTASRKH-SNVBAGLBSA-N

>  <original SMILES>  (67) 
CC(C)[C@@](C)(O)C(=O)c1ccncn1

>  <scratch_subdir>  (67) 
['/opt/xchem-fragalysis-2/maxwin/BulkDock/SCRATCH/211014/C2850-P17']

>  <tags>  (67) 
['Fragmenstein placed']

>  <distance_score>  (67) 
0.826651

>  <original ID>  (67) 
SNBKRVHNTASRKH-SNVBAGLBSA-N

>  <ref_mols>  (67) 
d0174a,d0587a

>  <SLURM_JOB_ID>  (67) 
211014

>  <ref_pdb>  (67) 
d0174a

$$$$
44344
     RDKit          3D

 14 14  0  0  0  0  0  0  0  0999 V2000
  -15.1402  -70.2725  -21.1052 C   0  0  0  0  0  0  0  0  0  0  0  0
  -13.7025  -70.2216  -20.5538 C   0  0  0  0  0  0  0  0  0  0  0  0
  -13.2991  -68.7533  -20.5083 C   0  0  0  0  0  0  0  0  0  0  0  0
  -12.7125  -71.0899  -21.3865 C   0  0  1  0  0  0  0  0  0  0  0  0
  -12.8851  -72.5882  -21.1225 C   0  0  0  0  0  0  0  0  0  0  0  0
  -13.0791  -70.9280  -22.7818 O   0  0  0  0  0  0  0  0  0  0  0  0
  -11.2225  -70.6526  -21.3280 C   0  0  0  0  0  0  0  0  0  0  0  0
  -10.7520  -69.9971  -22.2670 O   0  0  0  0  0  0  0  0  0  0  0  0
  -10.3145  -70.9885  -20.1879 C   0  0  0  0  0  0  0  0  0  0  0  0
  -10.7586  -71.3262  -18.9310 C   0  0  0  0  0  0  0  0  0  0  0  0
   -9.7732  -71.5738  -18.0017 C   0  0  0  0  0  0  0  0  0  0  0  0
   -8.4569  -71.4843  -18.2596 N   0  0  0  0  0  0  0  0  0  0  0  0
   -8.1295  -71.1424  -19.5126 C   0  0  0  0  0  0  0  0  0  0  0  0
   -8.9983  -70.8922  -20.4934 N   0  0  0  0  0  0  0  0  0  0  0  0
  1  2  1  0
  2  3  1  0
  2  4  1  0
  4  5  1  1
  4  6  1  0
  4  7  1  0
  7  8  2  0
  7  9  1  0
  9 10  2  0
 10 11  1  0
 11 12  2  0
 12 13  1  0
 13 14  2  0
 14  9  1  0
M  END
>  <SLURM_JOB_NAME>  (68) 
BulkDock.place:Flavi_NS5_RdRp:RdRp_knitwork_thumb_site_2_impure_split4000_batch001

>  <fragmenstein_error>  (68) 
['']

>  <HIPPO Compound ID>  (68) 
2850

>  <alias>  (68) 
None

>  <energy_score>  (68) 
-20.693997

>  <exports>  (68) 
['/opt/xchem-fragalysis-2/maxwin/BulkDock/OUTPUTS/RdRp_knitwork_thumb_site_2_impure_split4000_batch001_211014.sdf']

>  <fragmenstein_outcome>  (68) 
['acceptable']

>  <fragmenstein_mode>  (68) 
['expansion']

>  <HIPPO Pose ID>  (68) 
44344

>  <name>  (68) 
SNBKRVHNTASRKH-SNVBAGLBSA-N

>  <fragmenstein_runtime>  (68) 
[5.954085826873779]

>  <csv_name>  (68) 
RdRp_knitwork_thumb_site_2_impure_split4000_batch001.csv

>  <inchikey>  (68) 
SNBKRVHNTASRKH-SNVBAGLBSA-N

>  <original SMILES>  (68) 
CC(C)[C@@](C)(O)C(=O)c1ccncn1

>  <scratch_subdir>  (68) 
['/opt/xchem-fragalysis-2/maxwin/BulkDock/SCRATCH/211014/C2850-P48']

>  <tags>  (68) 
['Fragmenstein placed']

>  <distance_score>  (68) 
0.82956

>  <original ID>  (68) 
SNBKRVHNTASRKH-SNVBAGLBSA-N

>  <ref_mols>  (68) 
d0174a,d0587a

>  <SLURM_JOB_ID>  (68) 
211014

>  <ref_pdb>  (68) 
d0587a

$$$$
44347
     RDKit          3D

 13 13  0  0  0  0  0  0  0  0999 V2000
  -15.0374  -70.5119  -21.3558 C   0  0  0  0  0  0  0  0  0  0  0  0
  -13.8538  -70.0954  -20.4812 C   0  0  0  0  0  0  0  0  0  0  0  0
  -13.6127  -68.6111  -20.6857 C   0  0  0  0  0  0  0  0  0  0  0  0
  -14.2448  -70.2508  -19.1697 F   0  0  0  0  0  0  0  0  0  0  0  0
  -12.6418  -71.0330  -20.7160 C   0  0  0  0  0  0  0  0  0  0  0  0
  -11.2689  -70.3562  -20.6277 C   0  0  2  0  0  0  0  0  0  0  0  0
  -10.8857  -69.9308  -21.9516 O   0  0  0  0  0  0  0  0  0  0  0  0
  -10.1457  -71.1738  -20.0152 C   0  0  0  0  0  0  0  0  0  0  0  0
  -10.3461  -71.7731  -18.8268 N   0  0  0  0  0  0  0  0  0  0  0  0
   -9.2608  -72.3245  -18.2529 C   0  0  0  0  0  0  0  0  0  0  0  0
   -7.9977  -72.2687  -18.7948 C   0  0  0  0  0  0  0  0  0  0  0  0
   -7.8938  -71.6239  -20.0027 C   0  0  0  0  0  0  0  0  0  0  0  0
   -8.9432  -71.0697  -20.6328 N   0  0  0  0  0  0  0  0  0  0  0  0
  1  2  1  0
  2  3  1  0
  2  4  1  0
  2  5  1  0
  5  6  1  0
  6  7  1  6
  6  8  1  0
  8  9  2  0
  9 10  1  0
 10 11  2  0
 11 12  1  0
 12 13  2  0
 13  8  1  0
M  END
>  <SLURM_JOB_NAME>  (69) 
BulkDock.place:Flavi_NS5_RdRp:RdRp_knitwork_thumb_site_2_impure_split4000_batch001

>  <fragmenstein_error>  (69) 
['']

>  <HIPPO Compound ID>  (69) 
2853

>  <alias>  (69) 
None

>  <energy_score>  (69) 
-21.369942

>  <exports>  (69) 
['/opt/xchem-fragalysis-2/maxwin/BulkDock/OUTPUTS/RdRp_knitwork_thumb_site_2_impure_split4000_batch001_211014.sdf']

>  <fragmenstein_outcome>  (69) 
['acceptable']

>  <fragmenstein_mode>  (69) 
['expansion']

>  <HIPPO Pose ID>  (69) 
44347

>  <name>  (69) 
OJSJPKAVWLTFLL-ZETCQYMHSA-N

>  <fragmenstein_runtime>  (69) 
[7.432442903518677]

>  <csv_name>  (69) 
RdRp_knitwork_thumb_site_2_impure_split4000_batch001.csv

>  <inchikey>  (69) 
OJSJPKAVWLTFLL-ZETCQYMHSA-N

>  <original SMILES>  (69) 
CC(C)(F)C[C@H](O)c1ncccn1

>  <scratch_subdir>  (69) 
['/opt/xchem-fragalysis-2/maxwin/BulkDock/SCRATCH/211014/C2853-P17']

>  <tags>  (69) 
['Fragmenstein placed']

>  <distance_score>  (69) 
0.820386

>  <original ID>  (69) 
OJSJPKAVWLTFLL-ZETCQYMHSA-N

>  <ref_mols>  (69) 
d0174a,d0587a

>  <SLURM_JOB_ID>  (69) 
211014

>  <ref_pdb>  (69) 
d0174a

$$$$
44349
     RDKit          3D

 13 13  0  0  0  0  0  0  0  0999 V2000
  -15.0544  -70.5592  -21.3202 C   0  0  0  0  0  0  0  0  0  0  0  0
  -13.8500  -70.1003  -20.4981 C   0  0  0  0  0  0  0  0  0  0  0  0
  -13.6149  -68.6286  -20.7819 C   0  0  0  0  0  0  0  0  0  0  0  0
  -14.2061  -70.1960  -19.1718 F   0  0  0  0  0  0  0  0  0  0  0  0
  -12.6387  -71.0399  -20.7261 C   0  0  0  0  0  0  0  0  0  0  0  0
  -11.2684  -70.3637  -20.5966 C   0  0  2  0  0  0  0  0  0  0  0  0
  -10.8661  -69.8988  -21.9020 O   0  0  0  0  0  0  0  0  0  0  0  0
  -10.1505  -71.1980  -19.9973 C   0  0  0  0  0  0  0  0  0  0  0  0
  -10.3536  -71.8107  -18.8167 N   0  0  0  0  0  0  0  0  0  0  0  0
   -9.2719  -72.3763  -18.2503 C   0  0  0  0  0  0  0  0  0  0  0  0
   -8.0089  -72.3235  -18.7931 C   0  0  0  0  0  0  0  0  0  0  0  0
   -7.9016  -71.6662  -19.9940 C   0  0  0  0  0  0  0  0  0  0  0  0
   -8.9474  -71.0962  -20.6154 N   0  0  0  0  0  0  0  0  0  0  0  0
  1  2  1  0
  2  3  1  0
  2  4  1  0
  2  5  1  0
  5  6  1  0
  6  7  1  6
  6  8  1  0
  8  9  2  0
  9 10  1  0
 10 11  2  0
 11 12  1  0
 12 13  2  0
 13  8  1  0
M  END
>  <SLURM_JOB_NAME>  (70) 
BulkDock.place:Flavi_NS5_RdRp:RdRp_knitwork_thumb_site_2_impure_split4000_batch001

>  <fragmenstein_error>  (70) 
['']

>  <HIPPO Compound ID>  (70) 
2853

>  <alias>  (70) 
None

>  <energy_score>  (70) 
-22.307432

>  <exports>  (70) 
['/opt/xchem-fragalysis-2/maxwin/BulkDock/OUTPUTS/RdRp_knitwork_thumb_site_2_impure_split4000_batch001_211014.sdf']

>  <fragmenstein_outcome>  (70) 
['acceptable']

>  <fragmenstein_mode>  (70) 
['expansion']

>  <HIPPO Pose ID>  (70) 
44349

>  <name>  (70) 
OJSJPKAVWLTFLL-ZETCQYMHSA-N

>  <fragmenstein_runtime>  (70) 
[7.172524690628052]

>  <csv_name>  (70) 
RdRp_knitwork_thumb_site_2_impure_split4000_batch001.csv

>  <inchikey>  (70) 
OJSJPKAVWLTFLL-ZETCQYMHSA-N

>  <original SMILES>  (70) 
CC(C)(F)C[C@H](O)c1ncccn1

>  <scratch_subdir>  (70) 
['/opt/xchem-fragalysis-2/maxwin/BulkDock/SCRATCH/211014/C2853-P48']

>  <tags>  (70) 
['Fragmenstein placed']

>  <distance_score>  (70) 
0.854812

>  <original ID>  (70) 
OJSJPKAVWLTFLL-ZETCQYMHSA-N

>  <ref_mols>  (70) 
d0174a,d0587a

>  <SLURM_JOB_ID>  (70) 
211014

>  <ref_pdb>  (70) 
d0587a

$$$$
44352
     RDKit          3D

 15 15  0  0  0  0  0  0  0  0999 V2000
  -14.4657  -69.9072  -23.4305 C   0  0  0  0  0  0  0  0  0  0  0  0
  -15.0043  -69.9567  -22.0093 C   0  0  0  0  0  0  0  0  0  0  0  0
  -13.9424  -69.8733  -20.8868 C   0  0  0  0  0  0  0  0  0  0  0  0
  -13.1690  -68.5863  -20.9694 C   0  0  0  0  0  0  0  0  0  0  0  0
  -14.6899  -69.7958  -19.5466 C   0  0  0  0  0  0  0  0  0  0  0  0
  -13.0571  -71.1427  -20.8851 C   0  0  0  0  0  0  0  0  0  0  0  0
  -13.5447  -72.2005  -20.4576 O   0  0  0  0  0  0  0  0  0  0  0  0
  -11.5870  -71.1498  -21.4107 C   0  0  1  0  0  0  0  0  0  0  0  0
  -11.2272  -70.2120  -22.4079 O   0  0  0  0  0  0  0  0  0  0  0  0
  -10.5241  -71.1391  -20.3391 C   0  0  0  0  0  0  0  0  0  0  0  0
  -10.6781  -71.7159  -19.0919 C   0  0  0  0  0  0  0  0  0  0  0  0
   -9.6903  -71.8196  -18.1750 N   0  0  0  0  0  0  0  0  0  0  0  0
   -8.4897  -71.3619  -18.5577 C   0  0  0  0  0  0  0  0  0  0  0  0
   -8.2075  -70.7846  -19.7296 N   0  0  0  0  0  0  0  0  0  0  0  0
   -9.2377  -70.6857  -20.5940 C   0  0  0  0  0  0  0  0  0  0  0  0
  1  2  1  0
  2  3  1  0
  3  4  1  0
  3  5  1  0
  3  6  1  0
  6  7  2  0
  6  8  1  0
  8  9  1  6
  8 10  1  0
 10 11  2  0
 11 12  1  0
 12 13  2  0
 13 14  1  0
 14 15  2  0
 15 10  1  0
M  END
>  <SLURM_JOB_NAME>  (71) 
BulkDock.place:Flavi_NS5_RdRp:RdRp_knitwork_thumb_site_2_impure_split4000_batch001

>  <fragmenstein_error>  (71) 
['']

>  <HIPPO Compound ID>  (71) 
2908

>  <alias>  (71) 
None

>  <energy_score>  (71) 
-62.234475

>  <exports>  (71) 
['/opt/xchem-fragalysis-2/maxwin/BulkDock/OUTPUTS/RdRp_knitwork_thumb_site_2_impure_split4000_batch001_211014.sdf']

>  <fragmenstein_outcome>  (71) 
['acceptable']

>  <fragmenstein_mode>  (71) 
['expansion']

>  <HIPPO Pose ID>  (71) 
44352

>  <name>  (71) 
NPWWZFRUBYTVAQ-VIFPVBQESA-N

>  <fragmenstein_runtime>  (71) 
[4.493271589279175]

>  <csv_name>  (71) 
RdRp_knitwork_thumb_site_2_impure_split4000_batch001.csv

>  <inchikey>  (71) 
NPWWZFRUBYTVAQ-VIFPVBQESA-N

>  <original SMILES>  (71) 
CCC(C)(C)C(=O)[C@@H](O)c1cncnc1

>  <scratch_subdir>  (71) 
['/opt/xchem-fragalysis-2/maxwin/BulkDock/SCRATCH/211014/C2908-P17']

>  <tags>  (71) 
['Fragmenstein placed']

>  <distance_score>  (71) 
0.80167

>  <original ID>  (71) 
NPWWZFRUBYTVAQ-VIFPVBQESA-N

>  <ref_mols>  (71) 
d0174a,d0587a

>  <SLURM_JOB_ID>  (71) 
211014

>  <ref_pdb>  (71) 
d0174a

$$$$
44355
     RDKit          3D

 15 15  0  0  0  0  0  0  0  0999 V2000
  -14.7409  -69.7548  -23.0145 C   0  0  0  0  0  0  0  0  0  0  0  0
  -14.9254  -70.1410  -21.5538 C   0  0  0  0  0  0  0  0  0  0  0  0
  -13.5998  -70.2279  -20.7488 C   0  0  0  0  0  0  0  0  0  0  0  0
  -12.9763  -68.8520  -20.6440 C   0  0  0  0  0  0  0  0  0  0  0  0
  -13.9232  -70.6831  -19.3297 C   0  0  0  0  0  0  0  0  0  0  0  0
  -12.7125  -71.3326  -21.3587 C   0  0  0  0  0  0  0  0  0  0  0  0
  -13.2098  -72.4478  -21.5817 O   0  0  0  0  0  0  0  0  0  0  0  0
  -11.2191  -71.1271  -21.6678 C   0  0  1  0  0  0  0  0  0  0  0  0
  -10.9367  -69.9949  -22.4717 O   0  0  0  0  0  0  0  0  0  0  0  0
  -10.2858  -71.1892  -20.4928 C   0  0  0  0  0  0  0  0  0  0  0  0
  -10.4918  -71.9995  -19.3922 C   0  0  0  0  0  0  0  0  0  0  0  0
   -9.5998  -72.1599  -18.3923 N   0  0  0  0  0  0  0  0  0  0  0  0
   -8.4321  -71.5207  -18.5462 C   0  0  0  0  0  0  0  0  0  0  0  0
   -8.1069  -70.7167  -19.5637 N   0  0  0  0  0  0  0  0  0  0  0  0
   -9.0503  -70.5657  -20.5144 C   0  0  0  0  0  0  0  0  0  0  0  0
  1  2  1  0
  2  3  1  0
  3  4  1  0
  3  5  1  0
  3  6  1  0
  6  7  2  0
  6  8  1  0
  8  9  1  1
  8 10  1  0
 10 11  2  0
 11 12  1  0
 12 13  2  0
 13 14  1  0
 14 15  2  0
 15 10  1  0
M  END
>  <SLURM_JOB_NAME>  (72) 
BulkDock.place:Flavi_NS5_RdRp:RdRp_knitwork_thumb_site_2_impure_split4000_batch001

>  <fragmenstein_error>  (72) 
['']

>  <HIPPO Compound ID>  (72) 
2908

>  <alias>  (72) 
None

>  <energy_score>  (72) 
-67.479177

>  <exports>  (72) 
['/opt/xchem-fragalysis-2/maxwin/BulkDock/OUTPUTS/RdRp_knitwork_thumb_site_2_impure_split4000_batch001_211014.sdf']

>  <fragmenstein_outcome>  (72) 
['acceptable']

>  <fragmenstein_mode>  (72) 
['expansion']

>  <HIPPO Pose ID>  (72) 
44355

>  <name>  (72) 
NPWWZFRUBYTVAQ-VIFPVBQESA-N

>  <fragmenstein_runtime>  (72) 
[4.847635269165039]

>  <csv_name>  (72) 
RdRp_knitwork_thumb_site_2_impure_split4000_batch001.csv

>  <inchikey>  (72) 
NPWWZFRUBYTVAQ-VIFPVBQESA-N

>  <original SMILES>  (72) 
CCC(C)(C)C(=O)[C@@H](O)c1cncnc1

>  <scratch_subdir>  (72) 
['/opt/xchem-fragalysis-2/maxwin/BulkDock/SCRATCH/211014/C2908-P48']

>  <tags>  (72) 
['Fragmenstein placed']

>  <distance_score>  (72) 
0.840395

>  <original ID>  (72) 
NPWWZFRUBYTVAQ-VIFPVBQESA-N

>  <ref_mols>  (72) 
d0174a,d0587a

>  <SLURM_JOB_ID>  (72) 
211014

>  <ref_pdb>  (72) 
d0587a

$$$$
44358
     RDKit          3D

 14 14  0  0  0  0  0  0  0  0999 V2000
  -14.2948  -69.8388  -22.9935 C   0  0  0  0  0  0  0  0  0  0  0  0
  -14.7653  -70.2919  -21.7299 O   0  0  0  0  0  0  0  0  0  0  0  0
  -13.9360  -70.0185  -20.5916 C   0  0  2  0  0  0  0  0  0  0  0  0
  -13.5238  -68.5715  -20.4538 C   0  0  0  0  0  0  0  0  0  0  0  0
  -12.7812  -71.0233  -20.3753 C   0  0  1  0  0  0  0  0  0  0  0  0
  -13.2147  -72.3375  -20.7088 O   0  0  0  0  0  0  0  0  0  0  0  0
  -11.4112  -70.6965  -21.0018 C   0  0  0  0  0  0  0  0  0  0  0  0
  -11.2665  -70.0807  -22.0545 O   0  0  0  0  0  0  0  0  0  0  0  0
  -10.1950  -71.1396  -20.2485 C   0  0  0  0  0  0  0  0  0  0  0  0
  -10.2422  -72.1572  -19.3183 C   0  0  0  0  0  0  0  0  0  0  0  0
   -9.0660  -72.4084  -18.6548 C   0  0  0  0  0  0  0  0  0  0  0  0
   -7.9269  -71.7326  -18.8811 N   0  0  0  0  0  0  0  0  0  0  0  0
   -7.9783  -70.7913  -19.8347 C   0  0  0  0  0  0  0  0  0  0  0  0
   -9.0679  -70.4468  -20.5271 N   0  0  0  0  0  0  0  0  0  0  0  0
  1  2  1  0
  2  3  1  0
  3  4  1  6
  3  5  1  0
  5  6  1  6
  5  7  1  0
  7  8  2  0
  7  9  1  0
  9 10  2  0
 10 11  1  0
 11 12  2  0
 12 13  1  0
 13 14  2  0
 14  9  1  0
M  END
>  <SLURM_JOB_NAME>  (73) 
BulkDock.place:Flavi_NS5_RdRp:RdRp_knitwork_thumb_site_2_impure_split4000_batch001

>  <fragmenstein_error>  (73) 
['']

>  <HIPPO Compound ID>  (73) 
2909

>  <alias>  (73) 
None

>  <energy_score>  (73) 
-19.242484

>  <exports>  (73) 
['/opt/xchem-fragalysis-2/maxwin/BulkDock/OUTPUTS/RdRp_knitwork_thumb_site_2_impure_split4000_batch001_211014.sdf']

>  <fragmenstein_outcome>  (73) 
['acceptable']

>  <fragmenstein_mode>  (73) 
['expansion']

>  <HIPPO Pose ID>  (73) 
44358

>  <name>  (73) 
MBSDKDOWVBTTTL-HTRCEHHLSA-N

>  <fragmenstein_runtime>  (73) 
[3.1820287704467773]

>  <csv_name>  (73) 
RdRp_knitwork_thumb_site_2_impure_split4000_batch001.csv

>  <inchikey>  (73) 
MBSDKDOWVBTTTL-HTRCEHHLSA-N

>  <original SMILES>  (73) 
CO[C@H](C)[C@@H](O)C(=O)c1ccncn1

>  <scratch_subdir>  (73) 
['/opt/xchem-fragalysis-2/maxwin/BulkDock/SCRATCH/211014/C2909-P17']

>  <tags>  (73) 
['Fragmenstein placed']

>  <distance_score>  (73) 
0.927736

>  <original ID>  (73) 
MBSDKDOWVBTTTL-HTRCEHHLSA-N

>  <ref_mols>  (73) 
d0174a,d0587a

>  <SLURM_JOB_ID>  (73) 
211014

>  <ref_pdb>  (73) 
d0174a

$$$$
44359
     RDKit          3D

 14 14  0  0  0  0  0  0  0  0999 V2000
  -14.1928  -69.9595  -23.0120 C   0  0  0  0  0  0  0  0  0  0  0  0
  -14.7255  -70.3116  -21.7418 O   0  0  0  0  0  0  0  0  0  0  0  0
  -13.8975  -70.0535  -20.6001 C   0  0  2  0  0  0  0  0  0  0  0  0
  -13.4669  -68.6111  -20.4705 C   0  0  0  0  0  0  0  0  0  0  0  0
  -12.7482  -71.0627  -20.3788 C   0  0  1  0  0  0  0  0  0  0  0  0
  -13.1784  -72.3778  -20.7105 O   0  0  0  0  0  0  0  0  0  0  0  0
  -11.3749  -70.7285  -20.9969 C   0  0  0  0  0  0  0  0  0  0  0  0
  -11.2246  -70.1160  -22.0513 O   0  0  0  0  0  0  0  0  0  0  0  0
  -10.1620  -71.1558  -20.2303 C   0  0  0  0  0  0  0  0  0  0  0  0
  -10.2091  -72.1620  -19.2879 C   0  0  0  0  0  0  0  0  0  0  0  0
   -9.0363  -72.3960  -18.6121 C   0  0  0  0  0  0  0  0  0  0  0  0
   -7.9000  -71.7151  -18.8387 N   0  0  0  0  0  0  0  0  0  0  0  0
   -7.9510  -70.7878  -19.8057 C   0  0  0  0  0  0  0  0  0  0  0  0
   -9.0372  -70.4599  -20.5104 N   0  0  0  0  0  0  0  0  0  0  0  0
  1  2  1  0
  2  3  1  0
  3  4  1  6
  3  5  1  0
  5  6  1  6
  5  7  1  0
  7  8  2  0
  7  9  1  0
  9 10  2  0
 10 11  1  0
 11 12  2  0
 12 13  1  0
 13 14  2  0
 14  9  1  0
M  END
>  <SLURM_JOB_NAME>  (74) 
BulkDock.place:Flavi_NS5_RdRp:RdRp_knitwork_thumb_site_2_impure_split4000_batch001

>  <fragmenstein_error>  (74) 
['']

>  <HIPPO Compound ID>  (74) 
2909

>  <alias>  (74) 
None

>  <energy_score>  (74) 
-19.287394

>  <exports>  (74) 
['/opt/xchem-fragalysis-2/maxwin/BulkDock/OUTPUTS/RdRp_knitwork_thumb_site_2_impure_split4000_batch001_211014.sdf']

>  <fragmenstein_outcome>  (74) 
['acceptable']

>  <fragmenstein_mode>  (74) 
['expansion']

>  <HIPPO Pose ID>  (74) 
44359

>  <name>  (74) 
MBSDKDOWVBTTTL-HTRCEHHLSA-N

>  <fragmenstein_runtime>  (74) 
[3.173675537109375]

>  <csv_name>  (74) 
RdRp_knitwork_thumb_site_2_impure_split4000_batch001.csv

>  <inchikey>  (74) 
MBSDKDOWVBTTTL-HTRCEHHLSA-N

>  <original SMILES>  (74) 
CO[C@H](C)[C@@H](O)C(=O)c1ccncn1

>  <scratch_subdir>  (74) 
['/opt/xchem-fragalysis-2/maxwin/BulkDock/SCRATCH/211014/C2909-P48']

>  <tags>  (74) 
['Fragmenstein placed']

>  <distance_score>  (74) 
0.929611

>  <original ID>  (74) 
MBSDKDOWVBTTTL-HTRCEHHLSA-N

>  <ref_mols>  (74) 
d0174a,d0587a

>  <SLURM_JOB_ID>  (74) 
211014

>  <ref_pdb>  (74) 
d0587a

$$$$
44362
     RDKit          3D

 13 13  0  0  0  0  0  0  0  0999 V2000
  -14.8835  -69.4574  -22.8612 C   0  0  0  0  0  0  0  0  0  0  0  0
  -14.4195  -70.1533  -21.7088 O   0  0  0  0  0  0  0  0  0  0  0  0
  -13.6629  -69.2839  -20.8575 C   0  0  0  0  0  0  0  0  0  0  0  0
  -12.6550  -70.1076  -20.0512 C   0  0  1  0  0  0  0  0  0  0  0  0
  -13.2937  -71.2695  -19.5389 O   0  0  0  0  0  0  0  0  0  0  0  0
  -11.3546  -70.3905  -20.8291 C   0  0  0  0  0  0  0  0  0  0  0  0
  -11.1841  -70.1116  -22.0137 O   0  0  0  0  0  0  0  0  0  0  0  0
  -10.1939  -70.9156  -20.0833 C   0  0  0  0  0  0  0  0  0  0  0  0
  -10.2403  -71.3752  -18.7843 C   0  0  0  0  0  0  0  0  0  0  0  0
   -9.1481  -71.7704  -18.0892 N   0  0  0  0  0  0  0  0  0  0  0  0
   -7.9821  -71.7205  -18.7556 C   0  0  0  0  0  0  0  0  0  0  0  0
   -7.8165  -71.2928  -20.0151 N   0  0  0  0  0  0  0  0  0  0  0  0
   -8.9382  -70.8996  -20.6579 C   0  0  0  0  0  0  0  0  0  0  0  0
  1  2  1  0
  2  3  1  0
  3  4  1  0
  4  5  1  6
  4  6  1  0
  6  7  2  0
  6  8  1  0
  8  9  2  0
  9 10  1  0
 10 11  2  0
 11 12  1  0
 12 13  2  0
 13  8  1  0
M  END
>  <SLURM_JOB_NAME>  (75) 
BulkDock.place:Flavi_NS5_RdRp:RdRp_knitwork_thumb_site_2_impure_split4000_batch001

>  <fragmenstein_error>  (75) 
['']

>  <HIPPO Compound ID>  (75) 
2948

>  <alias>  (75) 
None

>  <energy_score>  (75) 
-53.950448

>  <exports>  (75) 
['/opt/xchem-fragalysis-2/maxwin/BulkDock/OUTPUTS/RdRp_knitwork_thumb_site_2_impure_split4000_batch001_211014.sdf']

>  <fragmenstein_outcome>  (75) 
['acceptable']

>  <fragmenstein_mode>  (75) 
['expansion']

>  <HIPPO Pose ID>  (75) 
44362

>  <name>  (75) 
DHZYOJGRJMZFAF-SSDOTTSWSA-N

>  <fragmenstein_runtime>  (75) 
[2.1077816486358643]

>  <csv_name>  (75) 
RdRp_knitwork_thumb_site_2_impure_split4000_batch001.csv

>  <inchikey>  (75) 
DHZYOJGRJMZFAF-SSDOTTSWSA-N

>  <original SMILES>  (75) 
COC[C@@H](O)C(=O)c1cncnc1

>  <scratch_subdir>  (75) 
['/opt/xchem-fragalysis-2/maxwin/BulkDock/SCRATCH/211014/C2948-P17']

>  <tags>  (75) 
['Fragmenstein placed']

>  <distance_score>  (75) 
0.836627

>  <original ID>  (75) 
DHZYOJGRJMZFAF-SSDOTTSWSA-N

>  <ref_mols>  (75) 
d0174a,d0587a

>  <SLURM_JOB_ID>  (75) 
211014

>  <ref_pdb>  (75) 
d0174a

$$$$
44364
     RDKit          3D

 13 13  0  0  0  0  0  0  0  0999 V2000
  -14.2733  -70.0054  -22.9396 C   0  0  0  0  0  0  0  0  0  0  0  0
  -14.6096  -70.0421  -21.5564 O   0  0  0  0  0  0  0  0  0  0  0  0
  -13.7036  -69.2737  -20.7546 C   0  0  0  0  0  0  0  0  0  0  0  0
  -12.6672  -70.1592  -20.0505 C   0  0  1  0  0  0  0  0  0  0  0  0
  -13.2805  -71.3647  -19.6152 O   0  0  0  0  0  0  0  0  0  0  0  0
  -11.3603  -70.3677  -20.8370 C   0  0  0  0  0  0  0  0  0  0  0  0
  -11.1910  -70.0201  -22.0031 O   0  0  0  0  0  0  0  0  0  0  0  0
  -10.1922  -70.9143  -20.1155 C   0  0  0  0  0  0  0  0  0  0  0  0
  -10.2269  -71.4139  -18.8306 C   0  0  0  0  0  0  0  0  0  0  0  0
   -9.1278  -71.8255  -18.1559 N   0  0  0  0  0  0  0  0  0  0  0  0
   -7.9672  -71.7533  -18.8292 C   0  0  0  0  0  0  0  0  0  0  0  0
   -7.8131  -71.2910  -20.0779 N   0  0  0  0  0  0  0  0  0  0  0  0
   -8.9409  -70.8795  -20.6985 C   0  0  0  0  0  0  0  0  0  0  0  0
  1  2  1  0
  2  3  1  0
  3  4  1  0
  4  5  1  6
  4  6  1  0
  6  7  2  0
  6  8  1  0
  8  9  2  0
  9 10  1  0
 10 11  2  0
 11 12  1  0
 12 13  2  0
 13  8  1  0
M  END
>  <SLURM_JOB_NAME>  (76) 
BulkDock.place:Flavi_NS5_RdRp:RdRp_knitwork_thumb_site_2_impure_split4000_batch001

>  <fragmenstein_error>  (76) 
['']

>  <HIPPO Compound ID>  (76) 
2948

>  <alias>  (76) 
None

>  <energy_score>  (76) 
-52.237662

>  <exports>  (76) 
['/opt/xchem-fragalysis-2/maxwin/BulkDock/OUTPUTS/RdRp_knitwork_thumb_site_2_impure_split4000_batch001_211014.sdf']

>  <fragmenstein_outcome>  (76) 
['acceptable']

>  <fragmenstein_mode>  (76) 
['expansion']

>  <HIPPO Pose ID>  (76) 
44364

>  <name>  (76) 
DHZYOJGRJMZFAF-SSDOTTSWSA-N

>  <fragmenstein_runtime>  (76) 
[2.0705857276916504]

>  <csv_name>  (76) 
RdRp_knitwork_thumb_site_2_impure_split4000_batch001.csv

>  <inchikey>  (76) 
DHZYOJGRJMZFAF-SSDOTTSWSA-N

>  <original SMILES>  (76) 
COC[C@@H](O)C(=O)c1cncnc1

>  <scratch_subdir>  (76) 
['/opt/xchem-fragalysis-2/maxwin/BulkDock/SCRATCH/211014/C2948-P48']

>  <tags>  (76) 
['Fragmenstein placed']

>  <distance_score>  (76) 
0.791351

>  <original ID>  (76) 
DHZYOJGRJMZFAF-SSDOTTSWSA-N

>  <ref_mols>  (76) 
d0174a,d0587a

>  <SLURM_JOB_ID>  (76) 
211014

>  <ref_pdb>  (76) 
d0587a

$$$$
44372
     RDKit          3D

 14 14  0  0  0  0  0  0  0  0999 V2000
  -14.1360  -69.2482  -22.6052 C   0  0  0  0  0  0  0  0  0  0  0  0
  -14.7666  -69.9837  -21.4426 C   0  0  0  0  0  0  0  0  0  0  0  0
  -13.8827  -70.2448  -20.3541 O   0  0  0  0  0  0  0  0  0  0  0  0
  -12.7758  -71.1613  -20.5286 C   0  0  1  0  0  0  0  0  0  0  0  0
  -13.0717  -72.3531  -21.4553 C   0  0  0  0  0  0  0  0  0  0  0  0
  -12.0338  -73.4630  -21.3717 C   0  0  0  0  0  0  0  0  0  0  0  0
  -11.4501  -70.3625  -20.7871 C   0  0  2  0  0  0  0  0  0  0  0  0
  -11.1394  -70.2019  -22.1719 O   0  0  0  0  0  0  0  0  0  0  0  0
  -10.2219  -70.8399  -20.0546 C   0  0  0  0  0  0  0  0  0  0  0  0
  -10.2256  -71.1302  -18.7016 C   0  0  0  0  0  0  0  0  0  0  0  0
   -9.1414  -71.5202  -17.9986 N   0  0  0  0  0  0  0  0  0  0  0  0
   -8.0002  -71.6027  -18.6982 C   0  0  0  0  0  0  0  0  0  0  0  0
   -7.8535  -71.3077  -19.9948 N   0  0  0  0  0  0  0  0  0  0  0  0
   -8.9709  -70.9177  -20.6408 C   0  0  0  0  0  0  0  0  0  0  0  0
  1  2  1  0
  2  3  1  0
  3  4  1  0
  4  5  1  6
  5  6  1  0
  4  7  1  0
  7  8  1  6
  7  9  1  0
  9 10  2  0
 10 11  1  0
 11 12  2  0
 12 13  1  0
 13 14  2  0
 14  9  1  0
M  END
>  <SLURM_JOB_NAME>  (77) 
BulkDock.place:Flavi_NS5_RdRp:RdRp_knitwork_thumb_site_2_impure_split4000_batch001

>  <fragmenstein_error>  (77) 
['']

>  <HIPPO Compound ID>  (77) 
3031

>  <alias>  (77) 
None

>  <energy_score>  (77) 
-29.760684

>  <exports>  (77) 
['/opt/xchem-fragalysis-2/maxwin/BulkDock/OUTPUTS/RdRp_knitwork_thumb_site_2_impure_split4000_batch001_211014.sdf']

>  <fragmenstein_outcome>  (77) 
['acceptable']

>  <fragmenstein_mode>  (77) 
['expansion']

>  <HIPPO Pose ID>  (77) 
44372

>  <name>  (77) 
DVPBFMLOVUXCNX-VHSXEESVSA-N

>  <fragmenstein_runtime>  (77) 
[2.5554232597351074]

>  <csv_name>  (77) 
RdRp_knitwork_thumb_site_2_impure_split4000_batch001.csv

>  <inchikey>  (77) 
DVPBFMLOVUXCNX-VHSXEESVSA-N

>  <original SMILES>  (77) 
CCO[C@@H](CC)[C@H](O)c1cncnc1

>  <scratch_subdir>  (77) 
['/opt/xchem-fragalysis-2/maxwin/BulkDock/SCRATCH/211014/C3031-P17']

>  <tags>  (77) 
['Fragmenstein placed']

>  <distance_score>  (77) 
0.701281

>  <original ID>  (77) 
DVPBFMLOVUXCNX-VHSXEESVSA-N

>  <ref_mols>  (77) 
d0174a,d0587a

>  <SLURM_JOB_ID>  (77) 
211014

>  <ref_pdb>  (77) 
d0174a

$$$$
44374
     RDKit          3D

 14 14  0  0  0  0  0  0  0  0999 V2000
  -14.2048  -69.3412  -22.5445 C   0  0  0  0  0  0  0  0  0  0  0  0
  -14.7803  -70.0621  -21.3464 C   0  0  0  0  0  0  0  0  0  0  0  0
  -13.8579  -70.2709  -20.2821 O   0  0  0  0  0  0  0  0  0  0  0  0
  -12.7405  -71.1730  -20.4647 C   0  0  1  0  0  0  0  0  0  0  0  0
  -13.0285  -72.3828  -21.3711 C   0  0  0  0  0  0  0  0  0  0  0  0
  -11.9581  -73.4626  -21.3098 C   0  0  0  0  0  0  0  0  0  0  0  0
  -11.4327  -70.3542  -20.7483 C   0  0  2  0  0  0  0  0  0  0  0  0
  -11.1385  -70.1800  -22.1349 O   0  0  0  0  0  0  0  0  0  0  0  0
  -10.1910  -70.8192  -20.0324 C   0  0  0  0  0  0  0  0  0  0  0  0
  -10.1656  -71.0545  -18.6688 C   0  0  0  0  0  0  0  0  0  0  0  0
   -9.0724  -71.4435  -17.9794 N   0  0  0  0  0  0  0  0  0  0  0  0
   -7.9534  -71.5835  -18.7057 C   0  0  0  0  0  0  0  0  0  0  0  0
   -7.8357  -71.3479  -20.0177 N   0  0  0  0  0  0  0  0  0  0  0  0
   -8.9605  -70.9554  -20.6491 C   0  0  0  0  0  0  0  0  0  0  0  0
  1  2  1  0
  2  3  1  0
  3  4  1  0
  4  5  1  6
  5  6  1  0
  4  7  1  0
  7  8  1  6
  7  9  1  0
  9 10  2  0
 10 11  1  0
 11 12  2  0
 12 13  1  0
 13 14  2  0
 14  9  1  0
M  END
>  <SLURM_JOB_NAME>  (78) 
BulkDock.place:Flavi_NS5_RdRp:RdRp_knitwork_thumb_site_2_impure_split4000_batch001

>  <fragmenstein_error>  (78) 
['']

>  <HIPPO Compound ID>  (78) 
3031

>  <alias>  (78) 
None

>  <energy_score>  (78) 
-29.665977

>  <exports>  (78) 
['/opt/xchem-fragalysis-2/maxwin/BulkDock/OUTPUTS/RdRp_knitwork_thumb_site_2_impure_split4000_batch001_211014.sdf']

>  <fragmenstein_outcome>  (78) 
['acceptable']

>  <fragmenstein_mode>  (78) 
['expansion']

>  <HIPPO Pose ID>  (78) 
44374

>  <name>  (78) 
DVPBFMLOVUXCNX-VHSXEESVSA-N

>  <fragmenstein_runtime>  (78) 
[2.3507180213928223]

>  <csv_name>  (78) 
RdRp_knitwork_thumb_site_2_impure_split4000_batch001.csv

>  <inchikey>  (78) 
DVPBFMLOVUXCNX-VHSXEESVSA-N

>  <original SMILES>  (78) 
CCO[C@@H](CC)[C@H](O)c1cncnc1

>  <scratch_subdir>  (78) 
['/opt/xchem-fragalysis-2/maxwin/BulkDock/SCRATCH/211014/C3031-P48']

>  <tags>  (78) 
['Fragmenstein placed']

>  <distance_score>  (78) 
0.720867

>  <original ID>  (78) 
DVPBFMLOVUXCNX-VHSXEESVSA-N

>  <ref_mols>  (78) 
d0174a,d0587a

>  <SLURM_JOB_ID>  (78) 
211014

>  <ref_pdb>  (78) 
d0587a

$$$$
44378
     RDKit          3D

 14 14  0  0  0  0  0  0  0  0999 V2000
  -14.9784  -68.8659  -21.9947 C   0  0  0  0  0  0  0  0  0  0  0  0
  -14.5987  -69.8144  -21.0025 O   0  0  0  0  0  0  0  0  0  0  0  0
  -13.1771  -69.8561  -20.8279 C   0  0  0  0  0  0  0  0  0  0  0  0
  -12.5844  -71.1608  -21.4124 C   0  0  0  0  0  0  0  0  0  0  0  0
  -13.1808  -72.3970  -20.7056 C   0  0  0  0  0  0  0  0  0  0  0  0
  -13.0013  -71.2982  -22.9072 C   0  0  0  0  0  0  0  0  0  0  0  0
  -11.0224  -71.1493  -21.3913 C   0  0  1  0  0  0  0  0  0  0  0  0
  -10.5441  -70.0442  -22.1868 O   0  0  0  0  0  0  0  0  0  0  0  0
  -10.1648  -71.1507  -20.1437 C   0  0  0  0  0  0  0  0  0  0  0  0
  -10.6142  -71.3209  -18.8549 C   0  0  0  0  0  0  0  0  0  0  0  0
   -9.6505  -71.3663  -17.8693 C   0  0  0  0  0  0  0  0  0  0  0  0
   -8.3322  -71.2379  -18.0947 N   0  0  0  0  0  0  0  0  0  0  0  0
   -7.9869  -71.0511  -19.3736 C   0  0  0  0  0  0  0  0  0  0  0  0
   -8.8365  -70.9950  -20.4092 N   0  0  0  0  0  0  0  0  0  0  0  0
  1  2  1  0
  2  3  1  0
  3  4  1  0
  4  5  1  0
  4  6  1  0
  4  7  1  0
  7  8  1  1
  7  9  1  0
  9 10  2  0
 10 11  1  0
 11 12  2  0
 12 13  1  0
 13 14  2  0
 14  9  1  0
M  END
>  <SLURM_JOB_NAME>  (79) 
BulkDock.place:Flavi_NS5_RdRp:RdRp_knitwork_thumb_site_2_impure_split4000_batch001

>  <fragmenstein_error>  (79) 
['']

>  <HIPPO Compound ID>  (79) 
3033

>  <alias>  (79) 
None

>  <energy_score>  (79) 
-15.187665

>  <exports>  (79) 
['/opt/xchem-fragalysis-2/maxwin/BulkDock/OUTPUTS/RdRp_knitwork_thumb_site_2_impure_split4000_batch001_211014.sdf']

>  <fragmenstein_outcome>  (79) 
['acceptable']

>  <fragmenstein_mode>  (79) 
['expansion']

>  <HIPPO Pose ID>  (79) 
44378

>  <name>  (79) 
IDCLISZTDSUJGE-VIFPVBQESA-N

>  <fragmenstein_runtime>  (79) 
[2.547717809677124]

>  <csv_name>  (79) 
RdRp_knitwork_thumb_site_2_impure_split4000_batch001.csv

>  <inchikey>  (79) 
IDCLISZTDSUJGE-VIFPVBQESA-N

>  <original SMILES>  (79) 
COCC(C)(C)[C@@H](O)c1ccncn1

>  <scratch_subdir>  (79) 
['/opt/xchem-fragalysis-2/maxwin/BulkDock/SCRATCH/211014/C3033-P48']

>  <tags>  (79) 
['Fragmenstein placed']

>  <distance_score>  (79) 
0.972113

>  <original ID>  (79) 
IDCLISZTDSUJGE-VIFPVBQESA-N

>  <ref_mols>  (79) 
d0174a,d0587a

>  <SLURM_JOB_ID>  (79) 
211014

>  <ref_pdb>  (79) 
d0587a

$$$$
44380
     RDKit          3D

 12 12  0  0  0  0  0  0  0  0999 V2000
  -13.4054  -69.8336  -20.2302 C   0  0  0  0  0  0  0  0  0  0  0  0
  -12.7126  -70.8594  -21.1230 C   0  0  0  0  0  0  0  0  0  0  0  0
  -13.0569  -72.2990  -20.7552 C   0  0  0  0  0  0  0  0  0  0  0  0
  -13.2858  -70.6677  -22.4359 O   0  0  0  0  0  0  0  0  0  0  0  0
  -11.1963  -70.5798  -21.2544 C   0  0  0  0  0  0  0  0  0  0  0  0
  -10.7771  -70.0195  -22.2750 O   0  0  0  0  0  0  0  0  0  0  0  0
  -10.2065  -70.9325  -20.1829 C   0  0  0  0  0  0  0  0  0  0  0  0
  -10.5509  -71.2834  -18.8971 C   0  0  0  0  0  0  0  0  0  0  0  0
   -9.5021  -71.5581  -18.0490 C   0  0  0  0  0  0  0  0  0  0  0  0
   -8.2106  -71.4778  -18.4061 N   0  0  0  0  0  0  0  0  0  0  0  0
   -7.9776  -71.1190  -19.6753 C   0  0  0  0  0  0  0  0  0  0  0  0
   -8.9161  -70.8451  -20.5843 N   0  0  0  0  0  0  0  0  0  0  0  0
  1  2  1  0
  2  3  1  0
  2  4  1  0
  2  5  1  0
  5  6  2  0
  5  7  1  0
  7  8  2  0
  8  9  1  0
  9 10  2  0
 10 11  1  0
 11 12  2  0
 12  7  1  0
M  END
>  <SLURM_JOB_NAME>  (80) 
BulkDock.place:Flavi_NS5_RdRp:RdRp_knitwork_thumb_site_2_impure_split4000_batch001

>  <fragmenstein_error>  (80) 
['']

>  <HIPPO Compound ID>  (80) 
3036

>  <alias>  (80) 
None

>  <energy_score>  (80) 
-27.226992

>  <exports>  (80) 
['/opt/xchem-fragalysis-2/maxwin/BulkDock/OUTPUTS/RdRp_knitwork_thumb_site_2_impure_split4000_batch001_211014.sdf']

>  <fragmenstein_outcome>  (80) 
['acceptable']

>  <fragmenstein_mode>  (80) 
['expansion']

>  <HIPPO Pose ID>  (80) 
44380

>  <name>  (80) 
LLCFIDMYSJHPGZ-UHFFFAOYSA-N

>  <fragmenstein_runtime>  (80) 
[2.446037530899048]

>  <csv_name>  (80) 
RdRp_knitwork_thumb_site_2_impure_split4000_batch001.csv

>  <inchikey>  (80) 
LLCFIDMYSJHPGZ-UHFFFAOYSA-N

>  <original SMILES>  (80) 
CC(C)(O)C(=O)c1ccncn1

>  <scratch_subdir>  (80) 
['/opt/xchem-fragalysis-2/maxwin/BulkDock/SCRATCH/211014/C3036-P48']

>  <tags>  (80) 
['Fragmenstein placed']

>  <distance_score>  (80) 
0.998768

>  <original ID>  (80) 
LLCFIDMYSJHPGZ-UHFFFAOYSA-N

>  <ref_mols>  (80) 
d0174a,d0587a

>  <SLURM_JOB_ID>  (80) 
211014

>  <ref_pdb>  (80) 
d0587a

$$$$
44382
     RDKit          3D

 14 14  0  0  0  0  0  0  0  0999 V2000
  -14.0163  -69.3201  -23.0435 C   0  0  0  0  0  0  0  0  0  0  0  0
  -14.4705  -69.5470  -21.5978 C   0  0  0  0  0  0  0  0  0  0  0  0
  -15.7146  -70.4370  -21.5741 C   0  0  0  0  0  0  0  0  0  0  0  0
  -14.8374  -68.1950  -20.9880 C   0  0  0  0  0  0  0  0  0  0  0  0
  -13.4179  -70.0593  -20.7529 O   0  0  0  0  0  0  0  0  0  0  0  0
  -12.8131  -71.2931  -21.1464 C   0  0  0  0  0  0  0  0  0  0  0  0
  -11.2918  -71.1911  -21.4460 C   0  0  1  0  0  0  0  0  0  0  0  0
  -10.9818  -70.1272  -22.3454 O   0  0  0  0  0  0  0  0  0  0  0  0
  -10.3090  -71.1254  -20.3170 C   0  0  0  0  0  0  0  0  0  0  0  0
  -10.6037  -71.2740  -18.9791 C   0  0  0  0  0  0  0  0  0  0  0  0
   -9.6693  -71.3688  -18.0056 N   0  0  0  0  0  0  0  0  0  0  0  0
   -8.3925  -71.2979  -18.4157 C   0  0  0  0  0  0  0  0  0  0  0  0
   -7.9769  -71.1076  -19.6712 N   0  0  0  0  0  0  0  0  0  0  0  0
   -8.9534  -71.0216  -20.5937 C   0  0  0  0  0  0  0  0  0  0  0  0
  1  2  1  0
  2  3  1  0
  2  4  1  0
  2  5  1  0
  5  6  1  0
  6  7  1  0
  7  8  1  1
  7  9  1  0
  9 10  2  0
 10 11  1  0
 11 12  2  0
 12 13  1  0
 13 14  2  0
 14  9  1  0
M  END
>  <SLURM_JOB_NAME>  (81) 
BulkDock.place:Flavi_NS5_RdRp:RdRp_knitwork_thumb_site_2_impure_split4000_batch001

>  <fragmenstein_error>  (81) 
['']

>  <HIPPO Compound ID>  (81) 
3038

>  <alias>  (81) 
None

>  <energy_score>  (81) 
-45.562775

>  <exports>  (81) 
['/opt/xchem-fragalysis-2/maxwin/BulkDock/OUTPUTS/RdRp_knitwork_thumb_site_2_impure_split4000_batch001_211014.sdf']

>  <fragmenstein_outcome>  (81) 
['acceptable']

>  <fragmenstein_mode>  (81) 
['expansion']

>  <HIPPO Pose ID>  (81) 
44382

>  <name>  (81) 
KIGXMFVAMLMNKL-SECBINFHSA-N

>  <fragmenstein_runtime>  (81) 
[5.056749105453491]

>  <csv_name>  (81) 
RdRp_knitwork_thumb_site_2_impure_split4000_batch001.csv

>  <inchikey>  (81) 
KIGXMFVAMLMNKL-SECBINFHSA-N

>  <original SMILES>  (81) 
CC(C)(C)OC[C@@H](O)c1cncnc1

>  <scratch_subdir>  (81) 
['/opt/xchem-fragalysis-2/maxwin/BulkDock/SCRATCH/211014/C3038-P17']

>  <tags>  (81) 
['Fragmenstein placed']

>  <distance_score>  (81) 
0.789642

>  <original ID>  (81) 
KIGXMFVAMLMNKL-SECBINFHSA-N

>  <ref_mols>  (81) 
d0174a,d0587a

>  <SLURM_JOB_ID>  (81) 
211014

>  <ref_pdb>  (81) 
d0174a

$$$$
44383
     RDKit          3D

 14 14  0  0  0  0  0  0  0  0999 V2000
  -14.2268  -69.5284  -22.9428 C   0  0  0  0  0  0  0  0  0  0  0  0
  -14.5035  -69.5491  -21.4365 C   0  0  0  0  0  0  0  0  0  0  0  0
  -15.6956  -70.4484  -21.1285 C   0  0  0  0  0  0  0  0  0  0  0  0
  -14.8682  -68.1383  -20.9743 C   0  0  0  0  0  0  0  0  0  0  0  0
  -13.3360  -69.9130  -20.6684 O   0  0  0  0  0  0  0  0  0  0  0  0
  -12.7872  -71.2175  -20.9137 C   0  0  0  0  0  0  0  0  0  0  0  0
  -11.2961  -71.1283  -21.3223 C   0  0  1  0  0  0  0  0  0  0  0  0
  -11.0700  -69.9754  -22.1326 O   0  0  0  0  0  0  0  0  0  0  0  0
  -10.2276  -71.1350  -20.2746 C   0  0  0  0  0  0  0  0  0  0  0  0
  -10.4220  -71.2210  -18.9127 C   0  0  0  0  0  0  0  0  0  0  0  0
   -9.4191  -71.3291  -18.0119 N   0  0  0  0  0  0  0  0  0  0  0  0
   -8.1768  -71.3389  -18.5225 C   0  0  0  0  0  0  0  0  0  0  0  0
   -7.8554  -71.2178  -19.8140 N   0  0  0  0  0  0  0  0  0  0  0  0
   -8.8960  -71.1141  -20.6612 C   0  0  0  0  0  0  0  0  0  0  0  0
  1  2  1  0
  2  3  1  0
  2  4  1  0
  2  5  1  0
  5  6  1  0
  6  7  1  0
  7  8  1  1
  7  9  1  0
  9 10  2  0
 10 11  1  0
 11 12  2  0
 12 13  1  0
 13 14  2  0
 14  9  1  0
M  END
>  <SLURM_JOB_NAME>  (82) 
BulkDock.place:Flavi_NS5_RdRp:RdRp_knitwork_thumb_site_2_impure_split4000_batch001

>  <fragmenstein_error>  (82) 
['']

>  <HIPPO Compound ID>  (82) 
3038

>  <alias>  (82) 
None

>  <energy_score>  (82) 
-50.000484

>  <exports>  (82) 
['/opt/xchem-fragalysis-2/maxwin/BulkDock/OUTPUTS/RdRp_knitwork_thumb_site_2_impure_split4000_batch001_211014.sdf']

>  <fragmenstein_outcome>  (82) 
['acceptable']

>  <fragmenstein_mode>  (82) 
['expansion']

>  <HIPPO Pose ID>  (82) 
44383

>  <name>  (82) 
KIGXMFVAMLMNKL-SECBINFHSA-N

>  <fragmenstein_runtime>  (82) 
[5.3021039962768555]

>  <csv_name>  (82) 
RdRp_knitwork_thumb_site_2_impure_split4000_batch001.csv

>  <inchikey>  (82) 
KIGXMFVAMLMNKL-SECBINFHSA-N

>  <original SMILES>  (82) 
CC(C)(C)OC[C@@H](O)c1cncnc1

>  <scratch_subdir>  (82) 
['/opt/xchem-fragalysis-2/maxwin/BulkDock/SCRATCH/211014/C3038-P48']

>  <tags>  (82) 
['Fragmenstein placed']

>  <distance_score>  (82) 
0.713535

>  <original ID>  (82) 
KIGXMFVAMLMNKL-SECBINFHSA-N

>  <ref_mols>  (82) 
d0174a,d0587a

>  <SLURM_JOB_ID>  (82) 
211014

>  <ref_pdb>  (82) 
d0587a

$$$$
44384
     RDKit          3D

 15 15  0  0  0  0  0  0  0  0999 V2000
  -14.1923  -70.1653  -25.0431 C   0  0  0  0  0  0  0  0  0  0  0  0
  -14.0911  -69.5670  -23.6504 C   0  0  0  0  0  0  0  0  0  0  0  0
  -14.8045  -70.4320  -22.6194 C   0  0  0  0  0  0  0  0  0  0  0  0
  -14.8808  -69.8470  -21.3173 O   0  0  0  0  0  0  0  0  0  0  0  0
  -13.6277  -69.5511  -20.7305 C   0  0  0  0  0  0  0  0  0  0  0  0
  -12.6088  -70.6938  -20.5648 C   0  0  0  0  0  0  0  0  0  0  0  0
  -12.9534  -71.8491  -20.3160 O   0  0  0  0  0  0  0  0  0  0  0  0
  -11.1496  -70.2743  -20.7376 C   0  0  2  0  0  0  0  0  0  0  0  0
  -10.8176  -70.2421  -22.1187 O   0  0  0  0  0  0  0  0  0  0  0  0
  -10.0875  -71.0055  -19.9783 C   0  0  0  0  0  0  0  0  0  0  0  0
  -10.2979  -71.7054  -18.8085 C   0  0  0  0  0  0  0  0  0  0  0  0
   -9.3064  -72.2339  -18.0624 N   0  0  0  0  0  0  0  0  0  0  0  0
   -8.0620  -72.0675  -18.5357 C   0  0  0  0  0  0  0  0  0  0  0  0
   -7.7281  -71.3940  -19.6418 N   0  0  0  0  0  0  0  0  0  0  0  0
   -8.7544  -70.8700  -20.3353 C   0  0  0  0  0  0  0  0  0  0  0  0
  1  2  1  0
  2  3  1  0
  3  4  1  0
  4  5  1  0
  5  6  1  0
  6  7  2  0
  6  8  1  0
  8  9  1  6
  8 10  1  0
 10 11  2  0
 11 12  1  0
 12 13  2  0
 13 14  1  0
 14 15  2  0
 15 10  1  0
M  END
>  <SLURM_JOB_NAME>  (83) 
BulkDock.place:Flavi_NS5_RdRp:RdRp_knitwork_thumb_site_2_impure_split4000_batch001

>  <fragmenstein_error>  (83) 
['']

>  <HIPPO Compound ID>  (83) 
3040

>  <alias>  (83) 
None

>  <energy_score>  (83) 
-262.507902

>  <exports>  (83) 
['/opt/xchem-fragalysis-2/maxwin/BulkDock/OUTPUTS/RdRp_knitwork_thumb_site_2_impure_split4000_batch001_211014.sdf']

>  <fragmenstein_outcome>  (83) 
['acceptable']

>  <fragmenstein_mode>  (83) 
['expansion']

>  <HIPPO Pose ID>  (83) 
44384

>  <name>  (83) 
TUMOHLOKDAXSCS-SNVBAGLBSA-N

>  <fragmenstein_runtime>  (83) 
[2.3620405197143555]

>  <csv_name>  (83) 
RdRp_knitwork_thumb_site_2_impure_split4000_batch001.csv

>  <inchikey>  (83) 
TUMOHLOKDAXSCS-SNVBAGLBSA-N

>  <original SMILES>  (83) 
CCCOCC(=O)[C@H](O)c1cncnc1

>  <scratch_subdir>  (83) 
['/opt/xchem-fragalysis-2/maxwin/BulkDock/SCRATCH/211014/C3040-P17']

>  <tags>  (83) 
['Fragmenstein placed']

>  <distance_score>  (83) 
0.818289

>  <original ID>  (83) 
TUMOHLOKDAXSCS-SNVBAGLBSA-N

>  <ref_mols>  (83) 
d0174a,d0587a

>  <SLURM_JOB_ID>  (83) 
211014

>  <ref_pdb>  (83) 
d0174a

$$$$
44386
     RDKit          3D

 15 15  0  0  0  0  0  0  0  0999 V2000
  -13.2471  -70.1127  -24.9579 C   0  0  0  0  0  0  0  0  0  0  0  0
  -13.3803  -69.5319  -23.5611 C   0  0  0  0  0  0  0  0  0  0  0  0
  -14.3839  -70.3098  -22.7186 C   0  0  0  0  0  0  0  0  0  0  0  0
  -14.6581  -69.7238  -21.4444 O   0  0  0  0  0  0  0  0  0  0  0  0
  -13.5264  -69.5196  -20.6182 C   0  0  0  0  0  0  0  0  0  0  0  0
  -12.5882  -70.7092  -20.3642 C   0  0  0  0  0  0  0  0  0  0  0  0
  -12.9918  -71.7303  -19.8011 O   0  0  0  0  0  0  0  0  0  0  0  0
  -11.1548  -70.5761  -20.8953 C   0  0  2  0  0  0  0  0  0  0  0  0
  -10.9851  -71.3358  -22.0818 O   0  0  0  0  0  0  0  0  0  0  0  0
  -10.0365  -70.9303  -19.9660 C   0  0  0  0  0  0  0  0  0  0  0  0
  -10.1651  -71.2998  -18.6435 C   0  0  0  0  0  0  0  0  0  0  0  0
   -9.1192  -71.5937  -17.8415 N   0  0  0  0  0  0  0  0  0  0  0  0
   -7.9067  -71.5341  -18.4147 C   0  0  0  0  0  0  0  0  0  0  0  0
   -7.6518  -71.1674  -19.6748 N   0  0  0  0  0  0  0  0  0  0  0  0
   -8.7286  -70.8700  -20.4224 C   0  0  0  0  0  0  0  0  0  0  0  0
  1  2  1  0
  2  3  1  0
  3  4  1  0
  4  5  1  0
  5  6  1  0
  6  7  2  0
  6  8  1  0
  8  9  1  6
  8 10  1  0
 10 11  2  0
 11 12  1  0
 12 13  2  0
 13 14  1  0
 14 15  2  0
 15 10  1  0
M  END
>  <SLURM_JOB_NAME>  (84) 
BulkDock.place:Flavi_NS5_RdRp:RdRp_knitwork_thumb_site_2_impure_split4000_batch001

>  <fragmenstein_error>  (84) 
['']

>  <HIPPO Compound ID>  (84) 
3040

>  <alias>  (84) 
None

>  <energy_score>  (84) 
-260.460934

>  <exports>  (84) 
['/opt/xchem-fragalysis-2/maxwin/BulkDock/OUTPUTS/RdRp_knitwork_thumb_site_2_impure_split4000_batch001_211014.sdf']

>  <fragmenstein_outcome>  (84) 
['acceptable']

>  <fragmenstein_mode>  (84) 
['expansion']

>  <HIPPO Pose ID>  (84) 
44386

>  <name>  (84) 
TUMOHLOKDAXSCS-SNVBAGLBSA-N

>  <fragmenstein_runtime>  (84) 
[2.396927833557129]

>  <csv_name>  (84) 
RdRp_knitwork_thumb_site_2_impure_split4000_batch001.csv

>  <inchikey>  (84) 
TUMOHLOKDAXSCS-SNVBAGLBSA-N

>  <original SMILES>  (84) 
CCCOCC(=O)[C@H](O)c1cncnc1

>  <scratch_subdir>  (84) 
['/opt/xchem-fragalysis-2/maxwin/BulkDock/SCRATCH/211014/C3040-P48']

>  <tags>  (84) 
['Fragmenstein placed']

>  <distance_score>  (84) 
0.792924

>  <original ID>  (84) 
TUMOHLOKDAXSCS-SNVBAGLBSA-N

>  <ref_mols>  (84) 
d0174a,d0587a

>  <SLURM_JOB_ID>  (84) 
211014

>  <ref_pdb>  (84) 
d0587a

$$$$
44387
     RDKit          3D

 15 15  0  0  0  0  0  0  0  0999 V2000
  -13.8519  -70.5593  -25.4402 C   0  0  0  0  0  0  0  0  0  0  0  0
  -14.2092  -70.2344  -24.0583 C   0  0  0  0  0  0  0  0  0  0  0  0
  -14.4810  -69.9434  -22.9254 C   0  0  0  0  0  0  0  0  0  0  0  0
  -14.7916  -69.5612  -21.5427 C   0  0  0  0  0  0  0  0  0  0  0  0
  -13.5348  -69.2063  -20.7647 C   0  0  0  0  0  0  0  0  0  0  0  0
  -12.7981  -70.4329  -20.2714 C   0  0  0  0  0  0  0  0  0  0  0  0
  -13.2473  -71.0240  -19.2776 O   0  0  0  0  0  0  0  0  0  0  0  0
  -11.5536  -70.9325  -21.0505 C   0  0  1  0  0  0  0  0  0  0  0  0
  -11.0800  -70.0447  -22.0648 O   0  0  0  0  0  0  0  0  0  0  0  0
  -10.3790  -71.2281  -20.1246 C   0  0  0  0  0  0  0  0  0  0  0  0
  -10.4692  -72.1363  -19.0885 C   0  0  0  0  0  0  0  0  0  0  0  0
   -9.3286  -72.3232  -18.3406 C   0  0  0  0  0  0  0  0  0  0  0  0
   -8.1646  -71.6940  -18.5808 N   0  0  0  0  0  0  0  0  0  0  0  0
   -8.1612  -70.8581  -19.6270 C   0  0  0  0  0  0  0  0  0  0  0  0
   -9.2154  -70.5797  -20.4109 N   0  0  0  0  0  0  0  0  0  0  0  0
  1  2  1  0
  2  3  3  0
  3  4  1  0
  4  5  1  0
  5  6  1  0
  6  7  2  0
  6  8  1  0
  8  9  1  6
  8 10  1  0
 10 11  2  0
 11 12  1  0
 12 13  2  0
 13 14  1  0
 14 15  2  0
 15 10  1  0
M  END
>  <SLURM_JOB_NAME>  (85) 
BulkDock.place:Flavi_NS5_RdRp:RdRp_knitwork_thumb_site_2_impure_split4000_batch001

>  <fragmenstein_error>  (85) 
['']

>  <HIPPO Compound ID>  (85) 
3066

>  <alias>  (85) 
None

>  <energy_score>  (85) 
-55.175092

>  <exports>  (85) 
['/opt/xchem-fragalysis-2/maxwin/BulkDock/OUTPUTS/RdRp_knitwork_thumb_site_2_impure_split4000_batch001_211014.sdf']

>  <fragmenstein_outcome>  (85) 
['acceptable']

>  <fragmenstein_mode>  (85) 
['expansion']

>  <HIPPO Pose ID>  (85) 
44387

>  <name>  (85) 
SNMXJWNSCZPIGC-NSHDSACASA-N

>  <fragmenstein_runtime>  (85) 
[2.115788221359253]

>  <csv_name>  (85) 
RdRp_knitwork_thumb_site_2_impure_split4000_batch001.csv

>  <inchikey>  (85) 
SNMXJWNSCZPIGC-NSHDSACASA-N

>  <original SMILES>  (85) 
CC#CCCC(=O)[C@@H](O)c1ccncn1

>  <scratch_subdir>  (85) 
['/opt/xchem-fragalysis-2/maxwin/BulkDock/SCRATCH/211014/C3066-P17']

>  <tags>  (85) 
['Fragmenstein placed']

>  <distance_score>  (85) 
0.994614

>  <original ID>  (85) 
SNMXJWNSCZPIGC-NSHDSACASA-N

>  <ref_mols>  (85) 
d0174a,d0587a

>  <SLURM_JOB_ID>  (85) 
211014

>  <ref_pdb>  (85) 
d0174a

$$$$
44388
     RDKit          3D

 15 15  0  0  0  0  0  0  0  0999 V2000
  -13.5789  -70.7066  -25.3792 C   0  0  0  0  0  0  0  0  0  0  0  0
  -14.0355  -70.3585  -24.0330 C   0  0  0  0  0  0  0  0  0  0  0  0
  -14.3777  -70.0374  -22.9277 C   0  0  0  0  0  0  0  0  0  0  0  0
  -14.7448  -69.6185  -21.5699 C   0  0  0  0  0  0  0  0  0  0  0  0
  -13.5169  -69.2236  -20.7643 C   0  0  0  0  0  0  0  0  0  0  0  0
  -12.7583  -70.4284  -20.2500 C   0  0  0  0  0  0  0  0  0  0  0  0
  -13.2009  -71.0161  -19.2519 O   0  0  0  0  0  0  0  0  0  0  0  0
  -11.5044  -70.9164  -21.0220 C   0  0  1  0  0  0  0  0  0  0  0  0
  -11.0171  -70.0110  -22.0158 O   0  0  0  0  0  0  0  0  0  0  0  0
  -10.3382  -71.2232  -20.0891 C   0  0  0  0  0  0  0  0  0  0  0  0
  -10.4386  -72.1311  -19.0541 C   0  0  0  0  0  0  0  0  0  0  0  0
   -9.3040  -72.3207  -18.2975 C   0  0  0  0  0  0  0  0  0  0  0  0
   -8.1357  -71.6954  -18.5294 N   0  0  0  0  0  0  0  0  0  0  0  0
   -8.1218  -70.8622  -19.5772 C   0  0  0  0  0  0  0  0  0  0  0  0
   -9.1689  -70.5808  -20.3686 N   0  0  0  0  0  0  0  0  0  0  0  0
  1  2  1  0
  2  3  3  0
  3  4  1  0
  4  5  1  0
  5  6  1  0
  6  7  2  0
  6  8  1  0
  8  9  1  6
  8 10  1  0
 10 11  2  0
 11 12  1  0
 12 13  2  0
 13 14  1  0
 14 15  2  0
 15 10  1  0
M  END
>  <SLURM_JOB_NAME>  (86) 
BulkDock.place:Flavi_NS5_RdRp:RdRp_knitwork_thumb_site_2_impure_split4000_batch001

>  <fragmenstein_error>  (86) 
['']

>  <HIPPO Compound ID>  (86) 
3066

>  <alias>  (86) 
None

>  <energy_score>  (86) 
-55.197684

>  <exports>  (86) 
['/opt/xchem-fragalysis-2/maxwin/BulkDock/OUTPUTS/RdRp_knitwork_thumb_site_2_impure_split4000_batch001_211014.sdf']

>  <fragmenstein_outcome>  (86) 
['acceptable']

>  <fragmenstein_mode>  (86) 
['expansion']

>  <HIPPO Pose ID>  (86) 
44388

>  <name>  (86) 
SNMXJWNSCZPIGC-NSHDSACASA-N

>  <fragmenstein_runtime>  (86) 
[2.0980355739593506]

>  <csv_name>  (86) 
RdRp_knitwork_thumb_site_2_impure_split4000_batch001.csv

>  <inchikey>  (86) 
SNMXJWNSCZPIGC-NSHDSACASA-N

>  <original SMILES>  (86) 
CC#CCCC(=O)[C@@H](O)c1ccncn1

>  <scratch_subdir>  (86) 
['/opt/xchem-fragalysis-2/maxwin/BulkDock/SCRATCH/211014/C3066-P48']

>  <tags>  (86) 
['Fragmenstein placed']

>  <distance_score>  (86) 
0.991183

>  <original ID>  (86) 
SNMXJWNSCZPIGC-NSHDSACASA-N

>  <ref_mols>  (86) 
d0174a,d0587a

>  <SLURM_JOB_ID>  (86) 
211014

>  <ref_pdb>  (86) 
d0587a

$$$$
44395
     RDKit          3D

 18 18  0  0  0  0  0  0  0  0999 V2000
  -13.2222  -69.5969  -23.7757 C   0  0  0  0  0  0  0  0  0  0  0  0
  -13.6935  -70.7582  -22.9286 C   0  0  0  0  0  0  0  0  0  0  0  0
  -14.3346  -70.4010  -21.6352 N   0  0  0  0  0  0  0  0  0  0  0  0
  -15.6169  -69.6560  -21.7143 C   0  0  0  0  0  0  0  0  0  0  0  0
  -16.5132  -70.1788  -22.8437 C   0  0  0  0  0  0  0  0  0  0  0  0
  -15.3624  -68.1557  -21.8010 C   0  0  0  0  0  0  0  0  0  0  0  0
  -13.3656  -69.9977  -20.3054 S   0  0  0  0  0  0  0  0  0  0  0  0
  -14.0939  -70.3714  -19.1106 O   0  0  0  0  0  0  0  0  0  0  0  0
  -12.8859  -68.6531  -20.4804 O   0  0  0  0  0  0  0  0  0  0  0  0
  -12.1021  -71.0629  -20.4856 N   0  0  0  0  0  0  0  0  0  0  0  0
  -10.7298  -70.4564  -20.6396 C   0  0  2  0  0  0  0  0  0  0  0  0
  -10.2046  -70.7232  -22.0475 C   0  0  0  0  0  0  0  0  0  0  0  0
   -9.7376  -70.9903  -19.6190 C   0  0  0  0  0  0  0  0  0  0  0  0
  -10.2329  -71.6056  -18.5232 N   0  0  0  0  0  0  0  0  0  0  0  0
   -9.3231  -72.0664  -17.6466 C   0  0  0  0  0  0  0  0  0  0  0  0
   -7.9643  -71.9458  -17.8274 C   0  0  0  0  0  0  0  0  0  0  0  0
   -7.5632  -71.2942  -18.9671 C   0  0  0  0  0  0  0  0  0  0  0  0
   -8.4255  -70.8000  -19.8655 N   0  0  0  0  0  0  0  0  0  0  0  0
  1  2  1  0
  2  3  1  0
  3  4  1  0
  4  5  1  0
  4  6  1  0
  3  7  1  0
  7  8  2  0
  7  9  2  0
  7 10  1  0
 10 11  1  0
 11 12  1  6
 11 13  1  0
 13 14  2  0
 14 15  1  0
 15 16  2  0
 16 17  1  0
 17 18  2  0
 18 13  1  0
M  END
>  <SLURM_JOB_NAME>  (87) 
BulkDock.place:Flavi_NS5_RdRp:RdRp_knitwork_thumb_site_2_impure_split4000_batch001

>  <fragmenstein_error>  (87) 
['']

>  <HIPPO Compound ID>  (87) 
3069

>  <alias>  (87) 
None

>  <energy_score>  (87) 
-61.179668

>  <exports>  (87) 
['/opt/xchem-fragalysis-2/maxwin/BulkDock/OUTPUTS/RdRp_knitwork_thumb_site_2_impure_split4000_batch001_211014.sdf']

>  <fragmenstein_outcome>  (87) 
['acceptable']

>  <fragmenstein_mode>  (87) 
['expansion']

>  <HIPPO Pose ID>  (87) 
44395

>  <name>  (87) 
MFPYFPPJPRANJZ-SNVBAGLBSA-N

>  <fragmenstein_runtime>  (87) 
[8.23488712310791]

>  <csv_name>  (87) 
RdRp_knitwork_thumb_site_2_impure_split4000_batch001.csv

>  <inchikey>  (87) 
MFPYFPPJPRANJZ-SNVBAGLBSA-N

>  <original SMILES>  (87) 
CCN(C(C)C)S(=O)(=O)N[C@H](C)c1ncccn1

>  <scratch_subdir>  (87) 
['/opt/xchem-fragalysis-2/maxwin/BulkDock/SCRATCH/211014/C3069-P17']

>  <tags>  (87) 
['Fragmenstein placed']

>  <distance_score>  (87) 
0.994431

>  <original ID>  (87) 
MFPYFPPJPRANJZ-SNVBAGLBSA-N

>  <ref_mols>  (87) 
d0174a,d0587a

>  <SLURM_JOB_ID>  (87) 
211014

>  <ref_pdb>  (87) 
d0174a

$$$$
44398
     RDKit          3D

 11 11  0  0  0  0  0  0  0  0999 V2000
  -11.2033  -70.4403  -22.1943 C   0  0  0  0  0  0  0  0  0  0  0  0
  -11.4415  -70.5331  -20.6920 C   0  0  1  0  0  0  0  0  0  0  0  0
  -11.7380  -69.2245  -20.1946 O   0  0  0  0  0  0  0  0  0  0  0  0
  -12.7017  -71.3594  -20.4353 C   0  0  0  0  0  0  0  0  0  0  0  0
  -13.7266  -70.8577  -19.9628 O   0  0  0  0  0  0  0  0  0  0  0  0
  -10.2489  -71.0143  -19.9128 C   0  0  0  0  0  0  0  0  0  0  0  0
  -10.2950  -71.1590  -18.5365 C   0  0  0  0  0  0  0  0  0  0  0  0
   -9.2539  -71.5523  -17.7725 N   0  0  0  0  0  0  0  0  0  0  0  0
   -8.1122  -71.7924  -18.4333 C   0  0  0  0  0  0  0  0  0  0  0  0
   -7.9288  -71.6655  -19.7521 N   0  0  0  0  0  0  0  0  0  0  0  0
   -9.0049  -71.2735  -20.4618 C   0  0  0  0  0  0  0  0  0  0  0  0
  2  1  1  6
  2  3  1  0
  2  4  1  0
  4  5  2  0
  2  6  1  0
  6  7  2  0
  7  8  1  0
  8  9  2  0
  9 10  1  0
 10 11  2  0
 11  6  1  0
M  END
>  <SLURM_JOB_NAME>  (88) 
BulkDock.place:Flavi_NS5_RdRp:RdRp_knitwork_thumb_site_2_impure_split4000_batch001

>  <fragmenstein_error>  (88) 
['']

>  <HIPPO Compound ID>  (88) 
3080

>  <alias>  (88) 
None

>  <energy_score>  (88) 
-33.796836

>  <exports>  (88) 
['/opt/xchem-fragalysis-2/maxwin/BulkDock/OUTPUTS/RdRp_knitwork_thumb_site_2_impure_split4000_batch001_211014.sdf']

>  <fragmenstein_outcome>  (88) 
['acceptable']

>  <fragmenstein_mode>  (88) 
['expansion']

>  <HIPPO Pose ID>  (88) 
44398

>  <name>  (88) 
CKMRRSJYIVGJDK-SSDOTTSWSA-N

>  <fragmenstein_runtime>  (88) 
[1.6796505451202393]

>  <csv_name>  (88) 
RdRp_knitwork_thumb_site_2_impure_split4000_batch001.csv

>  <inchikey>  (88) 
CKMRRSJYIVGJDK-SSDOTTSWSA-N

>  <original SMILES>  (88) 
C[C@@](O)(C=O)c1cncnc1

>  <scratch_subdir>  (88) 
['/opt/xchem-fragalysis-2/maxwin/BulkDock/SCRATCH/211014/C3080-P17']

>  <tags>  (88) 
['Fragmenstein placed']

>  <distance_score>  (88) 
0.819807

>  <original ID>  (88) 
CKMRRSJYIVGJDK-SSDOTTSWSA-N

>  <ref_mols>  (88) 
d0174a,d0587a

>  <SLURM_JOB_ID>  (88) 
211014

>  <ref_pdb>  (88) 
d0174a

$$$$
44399
     RDKit          3D

 11 11  0  0  0  0  0  0  0  0999 V2000
  -11.2375  -70.5968  -22.2347 C   0  0  0  0  0  0  0  0  0  0  0  0
  -11.4621  -70.6046  -20.7275 C   0  0  1  0  0  0  0  0  0  0  0  0
  -11.7690  -69.2759  -20.3063 O   0  0  0  0  0  0  0  0  0  0  0  0
  -12.7138  -71.4243  -20.4184 C   0  0  0  0  0  0  0  0  0  0  0  0
  -13.7566  -70.9006  -20.0150 O   0  0  0  0  0  0  0  0  0  0  0  0
  -10.2599  -71.0360  -19.9327 C   0  0  0  0  0  0  0  0  0  0  0  0
  -10.2889  -71.0982  -18.5498 C   0  0  0  0  0  0  0  0  0  0  0  0
   -9.2411  -71.4593  -17.7777 N   0  0  0  0  0  0  0  0  0  0  0  0
   -8.1095  -71.7455  -18.4374 C   0  0  0  0  0  0  0  0  0  0  0  0
   -7.9413  -71.6952  -19.7632 N   0  0  0  0  0  0  0  0  0  0  0  0
   -9.0237  -71.3342  -20.4800 C   0  0  0  0  0  0  0  0  0  0  0  0
  2  1  1  6
  2  3  1  0
  2  4  1  0
  4  5  2  0
  2  6  1  0
  6  7  2  0
  7  8  1  0
  8  9  2  0
  9 10  1  0
 10 11  2  0
 11  6  1  0
M  END
>  <SLURM_JOB_NAME>  (89) 
BulkDock.place:Flavi_NS5_RdRp:RdRp_knitwork_thumb_site_2_impure_split4000_batch001

>  <fragmenstein_error>  (89) 
['']

>  <HIPPO Compound ID>  (89) 
3080

>  <alias>  (89) 
None

>  <energy_score>  (89) 
-33.87436

>  <exports>  (89) 
['/opt/xchem-fragalysis-2/maxwin/BulkDock/OUTPUTS/RdRp_knitwork_thumb_site_2_impure_split4000_batch001_211014.sdf']

>  <fragmenstein_outcome>  (89) 
['acceptable']

>  <fragmenstein_mode>  (89) 
['expansion']

>  <HIPPO Pose ID>  (89) 
44399

>  <name>  (89) 
CKMRRSJYIVGJDK-SSDOTTSWSA-N

>  <fragmenstein_runtime>  (89) 
[1.6721363067626953]

>  <csv_name>  (89) 
RdRp_knitwork_thumb_site_2_impure_split4000_batch001.csv

>  <inchikey>  (89) 
CKMRRSJYIVGJDK-SSDOTTSWSA-N

>  <original SMILES>  (89) 
C[C@@](O)(C=O)c1cncnc1

>  <scratch_subdir>  (89) 
['/opt/xchem-fragalysis-2/maxwin/BulkDock/SCRATCH/211014/C3080-P48']

>  <tags>  (89) 
['Fragmenstein placed']

>  <distance_score>  (89) 
0.848999

>  <original ID>  (89) 
CKMRRSJYIVGJDK-SSDOTTSWSA-N

>  <ref_mols>  (89) 
d0174a,d0587a

>  <SLURM_JOB_ID>  (89) 
211014

>  <ref_pdb>  (89) 
d0587a

$$$$
44413
     RDKit          3D

 14 14  0  0  0  0  0  0  0  0999 V2000
  -14.7647  -69.3461  -22.7768 C   0  0  0  0  0  0  0  0  0  0  0  0
  -14.6928  -70.1404  -21.7012 C   0  0  0  0  0  0  0  0  0  0  0  0
  -13.7295  -69.9343  -20.5687 C   0  0  0  0  0  0  0  0  0  0  0  0
  -12.7057  -71.0790  -20.5221 C   0  0  0  0  0  0  0  0  0  0  0  0
  -13.0953  -72.2344  -20.3159 O   0  0  0  0  0  0  0  0  0  0  0  0
  -11.2318  -70.7349  -20.7989 C   0  0  1  0  0  0  0  0  0  0  0  0
  -10.9356  -70.8033  -22.2942 C   0  0  0  0  0  0  0  0  0  0  0  0
  -11.0321  -69.3860  -20.3835 O   0  0  0  0  0  0  0  0  0  0  0  0
  -10.1564  -71.4652  -20.0114 C   0  0  0  0  0  0  0  0  0  0  0  0
  -10.3931  -72.4176  -19.0458 C   0  0  0  0  0  0  0  0  0  0  0  0
   -9.3024  -72.8105  -18.2998 C   0  0  0  0  0  0  0  0  0  0  0  0
   -8.0588  -72.3211  -18.4596 N   0  0  0  0  0  0  0  0  0  0  0  0
   -7.9145  -71.4183  -19.4321 C   0  0  0  0  0  0  0  0  0  0  0  0
   -8.9038  -70.9502  -20.2027 N   0  0  0  0  0  0  0  0  0  0  0  0
  1  2  2  0
  2  3  1  0
  3  4  1  0
  4  5  2  0
  4  6  1  0
  6  7  1  6
  6  8  1  0
  6  9  1  0
  9 10  2  0
 10 11  1  0
 11 12  2  0
 12 13  1  0
 13 14  2  0
 14  9  1  0
M  END
>  <SLURM_JOB_NAME>  (90) 
BulkDock.place:Flavi_NS5_RdRp:RdRp_knitwork_thumb_site_2_impure_split4000_batch001

>  <fragmenstein_error>  (90) 
['']

>  <HIPPO Compound ID>  (90) 
3173

>  <alias>  (90) 
None

>  <energy_score>  (90) 
-32.413716

>  <exports>  (90) 
['/opt/xchem-fragalysis-2/maxwin/BulkDock/OUTPUTS/RdRp_knitwork_thumb_site_2_impure_split4000_batch001_211014.sdf']

>  <fragmenstein_outcome>  (90) 
['acceptable']

>  <fragmenstein_mode>  (90) 
['expansion']

>  <HIPPO Pose ID>  (90) 
44413

>  <name>  (90) 
YCVFJZUPGHSGCI-JTQLQIEISA-N

>  <fragmenstein_runtime>  (90) 
[2.078603982925415]

>  <csv_name>  (90) 
RdRp_knitwork_thumb_site_2_impure_split4000_batch001.csv

>  <inchikey>  (90) 
YCVFJZUPGHSGCI-JTQLQIEISA-N

>  <original SMILES>  (90) 
C=CCC(=O)[C@@](C)(O)c1ccncn1

>  <scratch_subdir>  (90) 
['/opt/xchem-fragalysis-2/maxwin/BulkDock/SCRATCH/211014/C3173-P17']

>  <tags>  (90) 
['Fragmenstein placed']

>  <distance_score>  (90) 
0.991597

>  <original ID>  (90) 
YCVFJZUPGHSGCI-JTQLQIEISA-N

>  <ref_mols>  (90) 
d0174a,d0587a

>  <SLURM_JOB_ID>  (90) 
211014

>  <ref_pdb>  (90) 
d0174a

$$$$
44422
     RDKit          3D

 13 13  0  0  0  0  0  0  0  0999 V2000
  -14.3491  -69.5260  -22.0047 C   0  0  0  0  0  0  0  0  0  0  0  0
  -13.6624  -69.4699  -20.6482 C   0  0  0  0  0  0  0  0  0  0  0  0
  -12.7452  -70.6609  -20.2746 C   0  0  2  0  0  0  0  0  0  0  0  0
  -13.3379  -72.0068  -20.6950 C   0  0  0  0  0  0  0  0  0  0  0  0
  -12.7018  -70.6248  -18.8374 O   0  0  0  0  0  0  0  0  0  0  0  0
  -11.3266  -70.5356  -20.9064 C   0  0  0  0  0  0  0  0  0  0  0  0
  -11.1503  -70.0542  -22.0262 O   0  0  0  0  0  0  0  0  0  0  0  0
  -10.1236  -71.0113  -20.1445 C   0  0  0  0  0  0  0  0  0  0  0  0
  -10.1933  -71.9448  -19.1321 C   0  0  0  0  0  0  0  0  0  0  0  0
   -9.0066  -72.2376  -18.5049 C   0  0  0  0  0  0  0  0  0  0  0  0
   -7.8332  -71.6759  -18.8368 N   0  0  0  0  0  0  0  0  0  0  0  0
   -7.8647  -70.8064  -19.8561 C   0  0  0  0  0  0  0  0  0  0  0  0
   -8.9599  -70.4362  -20.5258 N   0  0  0  0  0  0  0  0  0  0  0  0
  1  2  1  0
  2  3  1  0
  3  4  1  1
  3  5  1  0
  3  6  1  0
  6  7  2  0
  6  8  1  0
  8  9  2  0
  9 10  1  0
 10 11  2  0
 11 12  1  0
 12 13  2  0
 13  8  1  0
M  END
>  <SLURM_JOB_NAME>  (91) 
BulkDock.place:Flavi_NS5_RdRp:RdRp_knitwork_thumb_site_2_impure_split4000_batch001

>  <fragmenstein_error>  (91) 
['']

>  <HIPPO Compound ID>  (91) 
3260

>  <alias>  (91) 
None

>  <energy_score>  (91) 
-23.579722

>  <exports>  (91) 
['/opt/xchem-fragalysis-2/maxwin/BulkDock/OUTPUTS/RdRp_knitwork_thumb_site_2_impure_split4000_batch001_211014.sdf']

>  <fragmenstein_outcome>  (91) 
['acceptable']

>  <fragmenstein_mode>  (91) 
['expansion']

>  <HIPPO Pose ID>  (91) 
44422

>  <name>  (91) 
QMBLDZKCGZZACP-VIFPVBQESA-N

>  <fragmenstein_runtime>  (91) 
[1.7408902645111084]

>  <csv_name>  (91) 
RdRp_knitwork_thumb_site_2_impure_split4000_batch001.csv

>  <inchikey>  (91) 
QMBLDZKCGZZACP-VIFPVBQESA-N

>  <original SMILES>  (91) 
CC[C@](C)(O)C(=O)c1ccncn1

>  <scratch_subdir>  (91) 
['/opt/xchem-fragalysis-2/maxwin/BulkDock/SCRATCH/211014/C3260-P17']

>  <tags>  (91) 
['Fragmenstein placed']

>  <distance_score>  (91) 
0.876314

>  <original ID>  (91) 
QMBLDZKCGZZACP-VIFPVBQESA-N

>  <ref_mols>  (91) 
d0174a,d0587a

>  <SLURM_JOB_ID>  (91) 
211014

>  <ref_pdb>  (91) 
d0174a

$$$$
44424
     RDKit          3D

 13 13  0  0  0  0  0  0  0  0999 V2000
  -14.3569  -69.5368  -21.9939 C   0  0  0  0  0  0  0  0  0  0  0  0
  -13.6696  -69.4546  -20.6394 C   0  0  0  0  0  0  0  0  0  0  0  0
  -12.7483  -70.6356  -20.2472 C   0  0  2  0  0  0  0  0  0  0  0  0
  -13.3371  -71.9891  -20.6480 C   0  0  0  0  0  0  0  0  0  0  0  0
  -12.7067  -70.5802  -18.8106 O   0  0  0  0  0  0  0  0  0  0  0  0
  -11.3281  -70.5100  -20.8759 C   0  0  0  0  0  0  0  0  0  0  0  0
  -11.1464  -70.0179  -21.9905 O   0  0  0  0  0  0  0  0  0  0  0  0
  -10.1267  -70.9932  -20.1151 C   0  0  0  0  0  0  0  0  0  0  0  0
  -10.2001  -71.9084  -19.0865 C   0  0  0  0  0  0  0  0  0  0  0  0
   -9.0122  -72.2066  -18.4636 C   0  0  0  0  0  0  0  0  0  0  0  0
   -7.8337  -71.6665  -18.8137 N   0  0  0  0  0  0  0  0  0  0  0  0
   -7.8622  -70.8153  -19.8481 C   0  0  0  0  0  0  0  0  0  0  0  0
   -8.9573  -70.4418  -20.5152 N   0  0  0  0  0  0  0  0  0  0  0  0
  1  2  1  0
  2  3  1  0
  3  4  1  1
  3  5  1  0
  3  6  1  0
  6  7  2  0
  6  8  1  0
  8  9  2  0
  9 10  1  0
 10 11  2  0
 11 12  1  0
 12 13  2  0
 13  8  1  0
M  END
>  <SLURM_JOB_NAME>  (92) 
BulkDock.place:Flavi_NS5_RdRp:RdRp_knitwork_thumb_site_2_impure_split4000_batch001

>  <fragmenstein_error>  (92) 
['']

>  <HIPPO Compound ID>  (92) 
3260

>  <alias>  (92) 
None

>  <energy_score>  (92) 
-23.657536

>  <exports>  (92) 
['/opt/xchem-fragalysis-2/maxwin/BulkDock/OUTPUTS/RdRp_knitwork_thumb_site_2_impure_split4000_batch001_211014.sdf']

>  <fragmenstein_outcome>  (92) 
['acceptable']

>  <fragmenstein_mode>  (92) 
['expansion']

>  <HIPPO Pose ID>  (92) 
44424

>  <name>  (92) 
QMBLDZKCGZZACP-VIFPVBQESA-N

>  <fragmenstein_runtime>  (92) 
[1.7757391929626465]

>  <csv_name>  (92) 
RdRp_knitwork_thumb_site_2_impure_split4000_batch001.csv

>  <inchikey>  (92) 
QMBLDZKCGZZACP-VIFPVBQESA-N

>  <original SMILES>  (92) 
CC[C@](C)(O)C(=O)c1ccncn1

>  <scratch_subdir>  (92) 
['/opt/xchem-fragalysis-2/maxwin/BulkDock/SCRATCH/211014/C3260-P48']

>  <tags>  (92) 
['Fragmenstein placed']

>  <distance_score>  (92) 
0.864745

>  <original ID>  (92) 
QMBLDZKCGZZACP-VIFPVBQESA-N

>  <ref_mols>  (92) 
d0174a,d0587a

>  <SLURM_JOB_ID>  (92) 
211014

>  <ref_pdb>  (92) 
d0587a

$$$$
44426
     RDKit          3D

 14 14  0  0  0  0  0  0  0  0999 V2000
  -15.1242  -69.2207  -22.3464 C   0  0  0  0  0  0  0  0  0  0  0  0
  -14.7608  -69.8293  -21.1068 O   0  0  0  0  0  0  0  0  0  0  0  0
  -13.3536  -69.7296  -20.8565 C   0  0  0  0  0  0  0  0  0  0  0  0
  -12.5662  -70.9673  -21.3442 C   0  0  1  0  0  0  0  0  0  0  0  0
  -13.0162  -72.2668  -20.6893 C   0  0  0  0  0  0  0  0  0  0  0  0
  -12.8249  -71.1678  -22.7603 O   0  0  0  0  0  0  0  0  0  0  0  0
  -11.0619  -70.6459  -21.3044 C   0  0  0  0  0  0  0  0  0  0  0  0
  -10.5526  -70.0689  -22.2746 O   0  0  0  0  0  0  0  0  0  0  0  0
  -10.1822  -70.9685  -20.1440 C   0  0  0  0  0  0  0  0  0  0  0  0
  -10.6400  -71.1054  -18.8546 C   0  0  0  0  0  0  0  0  0  0  0  0
   -9.6757  -71.3747  -17.9109 C   0  0  0  0  0  0  0  0  0  0  0  0
   -8.3644  -71.4729  -18.1858 N   0  0  0  0  0  0  0  0  0  0  0  0
   -8.0195  -71.2981  -19.4683 C   0  0  0  0  0  0  0  0  0  0  0  0
   -8.8706  -71.0546  -20.4663 N   0  0  0  0  0  0  0  0  0  0  0  0
  1  2  1  0
  2  3  1  0
  3  4  1  0
  4  5  1  1
  4  6  1  0
  4  7  1  0
  7  8  2  0
  7  9  1  0
  9 10  2  0
 10 11  1  0
 11 12  2  0
 12 13  1  0
 13 14  2  0
 14  9  1  0
M  END
>  <SLURM_JOB_NAME>  (93) 
BulkDock.place:Flavi_NS5_RdRp:RdRp_knitwork_thumb_site_2_impure_split4000_batch001

>  <fragmenstein_error>  (93) 
['']

>  <HIPPO Compound ID>  (93) 
3291

>  <alias>  (93) 
None

>  <energy_score>  (93) 
-30.025872

>  <exports>  (93) 
['/opt/xchem-fragalysis-2/maxwin/BulkDock/OUTPUTS/RdRp_knitwork_thumb_site_2_impure_split4000_batch001_211014.sdf']

>  <fragmenstein_outcome>  (93) 
['acceptable']

>  <fragmenstein_mode>  (93) 
['expansion']

>  <HIPPO Pose ID>  (93) 
44426

>  <name>  (93) 
OZARGAOXNCYHCU-SECBINFHSA-N

>  <fragmenstein_runtime>  (93) 
[1.8587524890899658]

>  <csv_name>  (93) 
RdRp_knitwork_thumb_site_2_impure_split4000_batch001.csv

>  <inchikey>  (93) 
OZARGAOXNCYHCU-SECBINFHSA-N

>  <original SMILES>  (93) 
COC[C@@](C)(O)C(=O)c1ccncn1

>  <scratch_subdir>  (93) 
['/opt/xchem-fragalysis-2/maxwin/BulkDock/SCRATCH/211014/C3291-P17']

>  <tags>  (93) 
['Fragmenstein placed']

>  <distance_score>  (93) 
0.856498

>  <original ID>  (93) 
OZARGAOXNCYHCU-SECBINFHSA-N

>  <ref_mols>  (93) 
d0174a,d0587a

>  <SLURM_JOB_ID>  (93) 
211014

>  <ref_pdb>  (93) 
d0174a

$$$$
44428
     RDKit          3D

 14 14  0  0  0  0  0  0  0  0999 V2000
  -15.2073  -69.6612  -22.2837 C   0  0  0  0  0  0  0  0  0  0  0  0
  -14.7412  -69.8010  -20.9424 O   0  0  0  0  0  0  0  0  0  0  0  0
  -13.3170  -69.6856  -20.8399 C   0  0  0  0  0  0  0  0  0  0  0  0
  -12.5339  -70.9121  -21.3594 C   0  0  1  0  0  0  0  0  0  0  0  0
  -12.9899  -72.2303  -20.7475 C   0  0  0  0  0  0  0  0  0  0  0  0
  -12.7780  -71.0597  -22.7849 O   0  0  0  0  0  0  0  0  0  0  0  0
  -11.0279  -70.6056  -21.2981 C   0  0  0  0  0  0  0  0  0  0  0  0
  -10.4993  -70.0256  -22.2562 O   0  0  0  0  0  0  0  0  0  0  0  0
  -10.1665  -70.9463  -20.1289 C   0  0  0  0  0  0  0  0  0  0  0  0
  -10.6422  -71.0918  -18.8470 C   0  0  0  0  0  0  0  0  0  0  0  0
   -9.6914  -71.3687  -17.8917 C   0  0  0  0  0  0  0  0  0  0  0  0
   -8.3761  -71.4689  -18.1491 N   0  0  0  0  0  0  0  0  0  0  0  0
   -8.0149  -71.2930  -19.4270 C   0  0  0  0  0  0  0  0  0  0  0  0
   -8.8511  -71.0398  -20.4349 N   0  0  0  0  0  0  0  0  0  0  0  0
  1  2  1  0
  2  3  1  0
  3  4  1  0
  4  5  1  1
  4  6  1  0
  4  7  1  0
  7  8  2  0
  7  9  1  0
  9 10  2  0
 10 11  1  0
 11 12  2  0
 12 13  1  0
 13 14  2  0
 14  9  1  0
M  END
>  <SLURM_JOB_NAME>  (94) 
BulkDock.place:Flavi_NS5_RdRp:RdRp_knitwork_thumb_site_2_impure_split4000_batch001

>  <fragmenstein_error>  (94) 
['']

>  <HIPPO Compound ID>  (94) 
3291

>  <alias>  (94) 
None

>  <energy_score>  (94) 
-31.520398

>  <exports>  (94) 
['/opt/xchem-fragalysis-2/maxwin/BulkDock/OUTPUTS/RdRp_knitwork_thumb_site_2_impure_split4000_batch001_211014.sdf']

>  <fragmenstein_outcome>  (94) 
['acceptable']

>  <fragmenstein_mode>  (94) 
['expansion']

>  <HIPPO Pose ID>  (94) 
44428

>  <name>  (94) 
OZARGAOXNCYHCU-SECBINFHSA-N

>  <fragmenstein_runtime>  (94) 
[2.316920042037964]

>  <csv_name>  (94) 
RdRp_knitwork_thumb_site_2_impure_split4000_batch001.csv

>  <inchikey>  (94) 
OZARGAOXNCYHCU-SECBINFHSA-N

>  <original SMILES>  (94) 
COC[C@@](C)(O)C(=O)c1ccncn1

>  <scratch_subdir>  (94) 
['/opt/xchem-fragalysis-2/maxwin/BulkDock/SCRATCH/211014/C3291-P48']

>  <tags>  (94) 
['Fragmenstein placed']

>  <distance_score>  (94) 
0.896092

>  <original ID>  (94) 
OZARGAOXNCYHCU-SECBINFHSA-N

>  <ref_mols>  (94) 
d0174a,d0587a

>  <SLURM_JOB_ID>  (94) 
211014

>  <ref_pdb>  (94) 
d0587a

$$$$
44432
     RDKit          3D

 15 15  0  0  0  0  0  0  0  0999 V2000
  -15.9819  -70.4254  -23.9073 C   0  0  0  0  0  0  0  0  0  0  0  0
  -15.1633  -69.9790  -22.7777 C   0  0  0  0  0  0  0  0  0  0  0  0
  -14.5030  -69.6781  -21.8211 C   0  0  0  0  0  0  0  0  0  0  0  0
  -13.6594  -69.4053  -20.6515 C   0  0  0  0  0  0  0  0  0  0  0  0
  -12.7916  -70.6121  -20.3443 C   0  0  0  0  0  0  0  0  0  0  0  0
  -13.2004  -71.4473  -19.5259 O   0  0  0  0  0  0  0  0  0  0  0  0
  -11.4470  -70.7639  -21.1137 C   0  0  1  0  0  0  0  0  0  0  0  0
  -11.4292  -72.0496  -21.9303 C   0  0  0  0  0  0  0  0  0  0  0  0
  -11.2979  -69.6987  -22.0597 O   0  0  0  0  0  0  0  0  0  0  0  0
  -10.2282  -70.8337  -20.1810 C   0  0  0  0  0  0  0  0  0  0  0  0
  -10.2692  -71.5001  -18.9638 C   0  0  0  0  0  0  0  0  0  0  0  0
   -9.0797  -71.6472  -18.2855 C   0  0  0  0  0  0  0  0  0  0  0  0
   -7.9048  -71.1882  -18.7391 N   0  0  0  0  0  0  0  0  0  0  0  0
   -7.9508  -70.5715  -19.9284 C   0  0  0  0  0  0  0  0  0  0  0  0
   -9.0506  -70.3735  -20.6708 N   0  0  0  0  0  0  0  0  0  0  0  0
  1  2  1  0
  2  3  3  0
  3  4  1  0
  4  5  1  0
  5  6  2  0
  5  7  1  0
  7  8  1  6
  7  9  1  0
  7 10  1  0
 10 11  2  0
 11 12  1  0
 12 13  2  0
 13 14  1  0
 14 15  2  0
 15 10  1  0
M  END
>  <SLURM_JOB_NAME>  (95) 
BulkDock.place:Flavi_NS5_RdRp:RdRp_knitwork_thumb_site_2_impure_split4000_batch001

>  <fragmenstein_error>  (95) 
['']

>  <HIPPO Compound ID>  (95) 
3297

>  <alias>  (95) 
None

>  <energy_score>  (95) 
-84.152342

>  <exports>  (95) 
['/opt/xchem-fragalysis-2/maxwin/BulkDock/OUTPUTS/RdRp_knitwork_thumb_site_2_impure_split4000_batch001_211014.sdf']

>  <fragmenstein_outcome>  (95) 
['acceptable']

>  <fragmenstein_mode>  (95) 
['expansion']

>  <HIPPO Pose ID>  (95) 
44432

>  <name>  (95) 
VWYOPKRKWIERKW-NSHDSACASA-N

>  <fragmenstein_runtime>  (95) 
[2.5278608798980713]

>  <csv_name>  (95) 
RdRp_knitwork_thumb_site_2_impure_split4000_batch001.csv

>  <inchikey>  (95) 
VWYOPKRKWIERKW-NSHDSACASA-N

>  <original SMILES>  (95) 
CC#CCC(=O)[C@@](C)(O)c1ccncn1

>  <scratch_subdir>  (95) 
['/opt/xchem-fragalysis-2/maxwin/BulkDock/SCRATCH/211014/C3297-P48']

>  <tags>  (95) 
['Fragmenstein placed']

>  <distance_score>  (95) 
0.962923

>  <original ID>  (95) 
VWYOPKRKWIERKW-NSHDSACASA-N

>  <ref_mols>  (95) 
d0174a,d0587a

>  <SLURM_JOB_ID>  (95) 
211014

>  <ref_pdb>  (95) 
d0587a

$$$$
44439
     RDKit          3D

 14 14  0  0  0  0  0  0  0  0999 V2000
  -14.0810  -69.6170  -23.0418 C   0  0  0  0  0  0  0  0  0  0  0  0
  -14.7077  -69.9582  -21.8107 O   0  0  0  0  0  0  0  0  0  0  0  0
  -13.8387  -69.8039  -20.6928 C   0  0  0  0  0  0  0  0  0  0  0  0
  -12.7381  -70.8860  -20.4854 C   0  0  1  0  0  0  0  0  0  0  0  0
  -12.8716  -72.0684  -21.2809 O   0  0  0  0  0  0  0  0  0  0  0  0
  -13.9876  -72.8766  -20.9469 C   0  0  0  0  0  0  0  0  0  0  0  0
  -11.3186  -70.2836  -20.6650 C   0  0  2  0  0  0  0  0  0  0  0  0
  -11.0073  -69.9934  -22.0343 O   0  0  0  0  0  0  0  0  0  0  0  0
  -10.1390  -71.0150  -20.0496 C   0  0  0  0  0  0  0  0  0  0  0  0
  -10.2567  -72.0133  -19.1039 C   0  0  0  0  0  0  0  0  0  0  0  0
   -9.0813  -72.4695  -18.5500 C   0  0  0  0  0  0  0  0  0  0  0  0
   -7.8667  -71.9971  -18.8761 N   0  0  0  0  0  0  0  0  0  0  0  0
   -7.8468  -71.0565  -19.8278 C   0  0  0  0  0  0  0  0  0  0  0  0
   -8.9247  -70.5376  -20.4341 N   0  0  0  0  0  0  0  0  0  0  0  0
  1  2  1  0
  2  3  1  0
  4  3  1  6
  4  5  1  0
  5  6  1  0
  4  7  1  0
  7  8  1  6
  7  9  1  0
  9 10  2  0
 10 11  1  0
 11 12  2  0
 12 13  1  0
 13 14  2  0
 14  9  1  0
M  END
>  <SLURM_JOB_NAME>  (96) 
BulkDock.place:Flavi_NS5_RdRp:RdRp_knitwork_thumb_site_2_impure_split4000_batch001

>  <fragmenstein_error>  (96) 
['']

>  <HIPPO Compound ID>  (96) 
3321

>  <alias>  (96) 
None

>  <energy_score>  (96) 
-7.875179

>  <exports>  (96) 
['/opt/xchem-fragalysis-2/maxwin/BulkDock/OUTPUTS/RdRp_knitwork_thumb_site_2_impure_split4000_batch001_211014.sdf']

>  <fragmenstein_outcome>  (96) 
['acceptable']

>  <fragmenstein_mode>  (96) 
['expansion']

>  <HIPPO Pose ID>  (96) 
44439

>  <name>  (96) 
SJNAMLQOIVDIBD-RKDXNWHRSA-N

>  <fragmenstein_runtime>  (96) 
[3.2284746170043945]

>  <csv_name>  (96) 
RdRp_knitwork_thumb_site_2_impure_split4000_batch001.csv

>  <inchikey>  (96) 
SJNAMLQOIVDIBD-RKDXNWHRSA-N

>  <original SMILES>  (96) 
COC[C@@H](OC)[C@H](O)c1ccncn1

>  <scratch_subdir>  (96) 
['/opt/xchem-fragalysis-2/maxwin/BulkDock/SCRATCH/211014/C3321-P17']

>  <tags>  (96) 
['Fragmenstein placed']

>  <distance_score>  (96) 
0.888352

>  <original ID>  (96) 
SJNAMLQOIVDIBD-RKDXNWHRSA-N

>  <ref_mols>  (96) 
d0174a,d0587a

>  <SLURM_JOB_ID>  (96) 
211014

>  <ref_pdb>  (96) 
d0174a

$$$$
44452
     RDKit          3D

 14 14  0  0  0  0  0  0  0  0999 V2000
  -14.8739  -69.4685  -20.8716 C   0  0  0  0  0  0  0  0  0  0  0  0
  -13.4255  -69.7287  -20.4616 C   0  0  0  0  0  0  0  0  0  0  0  0
  -12.7292  -70.8678  -21.2403 C   0  0  0  0  0  0  0  0  0  0  0  0
  -13.2141  -70.8149  -22.6001 O   0  0  0  0  0  0  0  0  0  0  0  0
  -13.1134  -72.2604  -20.7103 C   0  0  0  0  0  0  0  0  0  0  0  0
  -12.4918  -73.4154  -21.4911 C   0  0  0  0  0  0  0  0  0  0  0  0
  -11.2076  -70.5894  -21.3476 C   0  0  0  0  0  0  0  0  0  0  0  0
  -10.7510  -70.0447  -22.3591 O   0  0  0  0  0  0  0  0  0  0  0  0
  -10.2345  -70.9199  -20.2909 C   0  0  0  0  0  0  0  0  0  0  0  0
  -10.5093  -71.1106  -18.9567 C   0  0  0  0  0  0  0  0  0  0  0  0
   -9.5700  -71.4257  -18.0324 N   0  0  0  0  0  0  0  0  0  0  0  0
   -8.3109  -71.5369  -18.4907 C   0  0  0  0  0  0  0  0  0  0  0  0
   -7.9189  -71.3356  -19.7539 N   0  0  0  0  0  0  0  0  0  0  0  0
   -8.8981  -71.0265  -20.6312 C   0  0  0  0  0  0  0  0  0  0  0  0
  1  2  1  0
  2  3  1  0
  3  4  1  0
  3  5  1  0
  5  6  1  0
  3  7  1  0
  7  8  2  0
  7  9  1  0
  9 10  2  0
 10 11  1  0
 11 12  2  0
 12 13  1  0
 13 14  2  0
 14  9  1  0
M  END
>  <SLURM_JOB_NAME>  (97) 
BulkDock.place:Flavi_NS5_RdRp:RdRp_knitwork_thumb_site_2_impure_split4000_batch001

>  <fragmenstein_error>  (97) 
['']

>  <HIPPO Compound ID>  (97) 
3376

>  <alias>  (97) 
None

>  <energy_score>  (97) 
-41.346662

>  <exports>  (97) 
['/opt/xchem-fragalysis-2/maxwin/BulkDock/OUTPUTS/RdRp_knitwork_thumb_site_2_impure_split4000_batch001_211014.sdf']

>  <fragmenstein_outcome>  (97) 
['acceptable']

>  <fragmenstein_mode>  (97) 
['expansion']

>  <HIPPO Pose ID>  (97) 
44452

>  <name>  (97) 
GOHONDUEDVKVSZ-UHFFFAOYSA-N

>  <fragmenstein_runtime>  (97) 
[3.912179946899414]

>  <csv_name>  (97) 
RdRp_knitwork_thumb_site_2_impure_split4000_batch001.csv

>  <inchikey>  (97) 
GOHONDUEDVKVSZ-UHFFFAOYSA-N

>  <original SMILES>  (97) 
CCC(O)(CC)C(=O)c1cncnc1

>  <scratch_subdir>  (97) 
['/opt/xchem-fragalysis-2/maxwin/BulkDock/SCRATCH/211014/C3376-P17']

>  <tags>  (97) 
['Fragmenstein placed']

>  <distance_score>  (97) 
0.750005

>  <original ID>  (97) 
GOHONDUEDVKVSZ-UHFFFAOYSA-N

>  <ref_mols>  (97) 
d0174a,d0587a

>  <SLURM_JOB_ID>  (97) 
211014

>  <ref_pdb>  (97) 
d0174a

$$$$
44454
     RDKit          3D

 14 14  0  0  0  0  0  0  0  0999 V2000
  -14.8919  -69.4603  -20.8420 C   0  0  0  0  0  0  0  0  0  0  0  0
  -13.4261  -69.6783  -20.4687 C   0  0  0  0  0  0  0  0  0  0  0  0
  -12.7320  -70.8316  -21.2279 C   0  0  0  0  0  0  0  0  0  0  0  0
  -13.2147  -70.7938  -22.5896 O   0  0  0  0  0  0  0  0  0  0  0  0
  -13.1198  -72.2155  -20.6788 C   0  0  0  0  0  0  0  0  0  0  0  0
  -12.5013  -73.3832  -21.4429 C   0  0  0  0  0  0  0  0  0  0  0  0
  -11.2100  -70.5554  -21.3382 C   0  0  0  0  0  0  0  0  0  0  0  0
  -10.7548  -70.0003  -22.3449 O   0  0  0  0  0  0  0  0  0  0  0  0
  -10.2327  -70.9020  -20.2911 C   0  0  0  0  0  0  0  0  0  0  0  0
  -10.4953  -71.0768  -18.9525 C   0  0  0  0  0  0  0  0  0  0  0  0
   -9.5515  -71.4099  -18.0390 N   0  0  0  0  0  0  0  0  0  0  0  0
   -8.3016  -71.5560  -18.5126 C   0  0  0  0  0  0  0  0  0  0  0  0
   -7.9210  -71.3720  -19.7820 N   0  0  0  0  0  0  0  0  0  0  0  0
   -8.9036  -71.0429  -20.6480 C   0  0  0  0  0  0  0  0  0  0  0  0
  1  2  1  0
  2  3  1  0
  3  4  1  0
  3  5  1  0
  5  6  1  0
  3  7  1  0
  7  8  2  0
  7  9  1  0
  9 10  2  0
 10 11  1  0
 11 12  2  0
 12 13  1  0
 13 14  2  0
 14  9  1  0
M  END
>  <SLURM_JOB_NAME>  (98) 
BulkDock.place:Flavi_NS5_RdRp:RdRp_knitwork_thumb_site_2_impure_split4000_batch001

>  <fragmenstein_error>  (98) 
['']

>  <HIPPO Compound ID>  (98) 
3376

>  <alias>  (98) 
None

>  <energy_score>  (98) 
-41.424602

>  <exports>  (98) 
['/opt/xchem-fragalysis-2/maxwin/BulkDock/OUTPUTS/RdRp_knitwork_thumb_site_2_impure_split4000_batch001_211014.sdf']

>  <fragmenstein_outcome>  (98) 
['acceptable']

>  <fragmenstein_mode>  (98) 
['expansion']

>  <HIPPO Pose ID>  (98) 
44454

>  <name>  (98) 
GOHONDUEDVKVSZ-UHFFFAOYSA-N

>  <fragmenstein_runtime>  (98) 
[3.808882713317871]

>  <csv_name>  (98) 
RdRp_knitwork_thumb_site_2_impure_split4000_batch001.csv

>  <inchikey>  (98) 
GOHONDUEDVKVSZ-UHFFFAOYSA-N

>  <original SMILES>  (98) 
CCC(O)(CC)C(=O)c1cncnc1

>  <scratch_subdir>  (98) 
['/opt/xchem-fragalysis-2/maxwin/BulkDock/SCRATCH/211014/C3376-P48']

>  <tags>  (98) 
['Fragmenstein placed']

>  <distance_score>  (98) 
0.753094

>  <original ID>  (98) 
GOHONDUEDVKVSZ-UHFFFAOYSA-N

>  <ref_mols>  (98) 
d0174a,d0587a

>  <SLURM_JOB_ID>  (98) 
211014

>  <ref_pdb>  (98) 
d0587a

$$$$
44456
     RDKit          3D

 14 14  0  0  0  0  0  0  0  0999 V2000
  -14.5218  -69.3241  -20.8817 C   0  0  0  0  0  0  0  0  0  0  0  0
  -13.1852  -69.7281  -20.5791 O   0  0  0  0  0  0  0  0  0  0  0  0
  -12.9113  -71.0625  -21.0424 C   0  0  0  0  0  0  0  0  0  0  0  0
  -11.4124  -71.2013  -21.4827 C   0  0  1  0  0  0  0  0  0  0  0  0
  -11.1256  -70.0486  -22.2991 O   0  0  0  0  0  0  0  0  0  0  0  0
  -10.3837  -71.1948  -20.3736 C   0  0  0  0  0  0  0  0  0  0  0  0
  -10.5942  -71.7009  -19.1050 C   0  0  0  0  0  0  0  0  0  0  0  0
   -9.6424  -71.7912  -18.1495 N   0  0  0  0  0  0  0  0  0  0  0  0
   -8.4225  -71.3627  -18.5047 C   0  0  0  0  0  0  0  0  0  0  0  0
   -8.0921  -70.8198  -19.6797 N   0  0  0  0  0  0  0  0  0  0  0  0
   -9.0886  -70.7412  -20.5844 C   0  0  0  0  0  0  0  0  0  0  0  0
  -11.2778  -72.4661  -22.4077 C   0  0  0  0  0  0  0  0  0  0  0  0
   -9.9350  -72.5795  -23.1452 C   0  0  0  0  0  0  0  0  0  0  0  0
  -11.5798  -73.7909  -21.6969 C   0  0  0  0  0  0  0  0  0  0  0  0
  1  2  1  0
  2  3  1  0
  3  4  1  0
  4  5  1  6
  4  6  1  0
  6  7  2  0
  7  8  1  0
  8  9  2  0
  9 10  1  0
 10 11  2  0
  4 12  1  0
 12 13  1  0
 12 14  1  0
 11  6  1  0
M  END
>  <SLURM_JOB_NAME>  (99) 
BulkDock.place:Flavi_NS5_RdRp:RdRp_knitwork_thumb_site_2_impure_split4000_batch001

>  <fragmenstein_error>  (99) 
['']

>  <HIPPO Compound ID>  (99) 
3381

>  <alias>  (99) 
None

>  <energy_score>  (99) 
-36.360101

>  <exports>  (99) 
['/opt/xchem-fragalysis-2/maxwin/BulkDock/OUTPUTS/RdRp_knitwork_thumb_site_2_impure_split4000_batch001_211014.sdf']

>  <fragmenstein_outcome>  (99) 
['acceptable']

>  <fragmenstein_mode>  (99) 
['expansion']

>  <HIPPO Pose ID>  (99) 
44456

>  <name>  (99) 
HQPKHYUXZSPFEG-JTQLQIEISA-N

>  <fragmenstein_runtime>  (99) 
[3.7206616401672363]

>  <csv_name>  (99) 
RdRp_knitwork_thumb_site_2_impure_split4000_batch001.csv

>  <inchikey>  (99) 
HQPKHYUXZSPFEG-JTQLQIEISA-N

>  <original SMILES>  (99) 
COC[C@@](O)(c1cncnc1)C(C)C

>  <scratch_subdir>  (99) 
['/opt/xchem-fragalysis-2/maxwin/BulkDock/SCRATCH/211014/C3381-P17']

>  <tags>  (99) 
['Fragmenstein placed']

>  <distance_score>  (99) 
0.84959

>  <original ID>  (99) 
HQPKHYUXZSPFEG-JTQLQIEISA-N

>  <ref_mols>  (99) 
d0174a,d0587a

>  <SLURM_JOB_ID>  (99) 
211014

>  <ref_pdb>  (99) 
d0174a

$$$$
44457
     RDKit          3D

 14 14  0  0  0  0  0  0  0  0999 V2000
  -14.5485  -69.3006  -20.8564 C   0  0  0  0  0  0  0  0  0  0  0  0
  -13.2119  -69.7001  -20.5472 O   0  0  0  0  0  0  0  0  0  0  0  0
  -12.9284  -71.0271  -21.0253 C   0  0  0  0  0  0  0  0  0  0  0  0
  -11.4303  -71.1490  -21.4718 C   0  0  1  0  0  0  0  0  0  0  0  0
  -11.1471  -69.9719  -22.2553 O   0  0  0  0  0  0  0  0  0  0  0  0
  -10.3973  -71.1722  -20.3668 C   0  0  0  0  0  0  0  0  0  0  0  0
  -10.6036  -71.7024  -19.1076 C   0  0  0  0  0  0  0  0  0  0  0  0
   -9.6452  -71.8212  -18.1615 N   0  0  0  0  0  0  0  0  0  0  0  0
   -8.4241  -71.3958  -18.5155 C   0  0  0  0  0  0  0  0  0  0  0  0
   -8.0975  -70.8294  -19.6802 N   0  0  0  0  0  0  0  0  0  0  0  0
   -9.1003  -70.7233  -20.5752 C   0  0  0  0  0  0  0  0  0  0  0  0
  -11.2990  -72.3893  -22.4306 C   0  0  0  0  0  0  0  0  0  0  0  0
   -9.9668  -72.4757  -23.1891 C   0  0  0  0  0  0  0  0  0  0  0  0
  -11.5842  -73.7332  -21.7493 C   0  0  0  0  0  0  0  0  0  0  0  0
  1  2  1  0
  2  3  1  0
  3  4  1  0
  4  5  1  6
  4  6  1  0
  6  7  2  0
  7  8  1  0
  8  9  2  0
  9 10  1  0
 10 11  2  0
  4 12  1  0
 12 13  1  0
 12 14  1  0
 11  6  1  0
M  END
>  <SLURM_JOB_NAME>  (100) 
BulkDock.place:Flavi_NS5_RdRp:RdRp_knitwork_thumb_site_2_impure_split4000_batch001

>  <fragmenstein_error>  (100) 
['']

>  <HIPPO Compound ID>  (100) 
3381

>  <alias>  (100) 
None

>  <energy_score>  (100) 
-36.149872

>  <exports>  (100) 
['/opt/xchem-fragalysis-2/maxwin/BulkDock/OUTPUTS/RdRp_knitwork_thumb_site_2_impure_split4000_batch001_211014.sdf']

>  <fragmenstein_outcome>  (100) 
['acceptable']

>  <fragmenstein_mode>  (100) 
['expansion']

>  <HIPPO Pose ID>  (100) 
44457

>  <name>  (100) 
HQPKHYUXZSPFEG-JTQLQIEISA-N

>  <fragmenstein_runtime>  (100) 
[3.3446998596191406]

>  <csv_name>  (100) 
RdRp_knitwork_thumb_site_2_impure_split4000_batch001.csv

>  <inchikey>  (100) 
HQPKHYUXZSPFEG-JTQLQIEISA-N

>  <original SMILES>  (100) 
COC[C@@](O)(c1cncnc1)C(C)C

>  <scratch_subdir>  (100) 
['/opt/xchem-fragalysis-2/maxwin/BulkDock/SCRATCH/211014/C3381-P48']

>  <tags>  (100) 
['Fragmenstein placed']

>  <distance_score>  (100) 
0.841827

>  <original ID>  (100) 
HQPKHYUXZSPFEG-JTQLQIEISA-N

>  <ref_mols>  (100) 
d0174a,d0587a

>  <SLURM_JOB_ID>  (100) 
211014

>  <ref_pdb>  (100) 
d0587a

$$$$
44461
     RDKit          3D

 12 12  0  0  0  0  0  0  0  0999 V2000
  -14.5782  -69.6459  -21.7579 C   0  0  0  0  0  0  0  0  0  0  0  0
  -13.6291  -69.9078  -20.6198 C   0  0  0  0  0  0  0  0  0  0  0  0
  -13.7152  -69.2892  -19.5569 O   0  0  0  0  0  0  0  0  0  0  0  0
  -12.5518  -70.9568  -20.8202 C   0  0  0  0  0  0  0  0  0  0  0  0
  -11.1927  -70.2588  -20.8112 C   0  0  2  0  0  0  0  0  0  0  0  0
  -10.7672  -70.0319  -22.1561 O   0  0  0  0  0  0  0  0  0  0  0  0
  -10.1204  -70.9601  -20.0363 C   0  0  0  0  0  0  0  0  0  0  0  0
  -10.1475  -70.9916  -18.6528 C   0  0  0  0  0  0  0  0  0  0  0  0
   -9.1685  -71.5135  -17.8875 N   0  0  0  0  0  0  0  0  0  0  0  0
   -8.1232  -72.0204  -18.5590 C   0  0  0  0  0  0  0  0  0  0  0  0
   -7.9823  -72.0497  -19.8909 N   0  0  0  0  0  0  0  0  0  0  0  0
   -8.9987  -71.5298  -20.6038 C   0  0  0  0  0  0  0  0  0  0  0  0
  1  2  1  0
  2  3  2  0
  2  4  1  0
  4  5  1  0
  5  6  1  6
  5  7  1  0
  7  8  2  0
  8  9  1  0
  9 10  2  0
 10 11  1  0
 11 12  2  0
 12  7  1  0
M  END
>  <SLURM_JOB_NAME>  (101) 
BulkDock.place:Flavi_NS5_RdRp:RdRp_knitwork_thumb_site_2_impure_split4000_batch001

>  <fragmenstein_error>  (101) 
['']

>  <HIPPO Compound ID>  (101) 
3409

>  <alias>  (101) 
None

>  <energy_score>  (101) 
-18.429866

>  <exports>  (101) 
['/opt/xchem-fragalysis-2/maxwin/BulkDock/OUTPUTS/RdRp_knitwork_thumb_site_2_impure_split4000_batch001_211014.sdf']

>  <fragmenstein_outcome>  (101) 
['acceptable']

>  <fragmenstein_mode>  (101) 
['expansion']

>  <HIPPO Pose ID>  (101) 
44461

>  <name>  (101) 
YVWWNNHDWDVOBM-QMMMGPOBSA-N

>  <fragmenstein_runtime>  (101) 
[3.2503726482391357]

>  <csv_name>  (101) 
RdRp_knitwork_thumb_site_2_impure_split4000_batch001.csv

>  <inchikey>  (101) 
YVWWNNHDWDVOBM-QMMMGPOBSA-N

>  <original SMILES>  (101) 
CC(=O)C[C@H](O)c1cncnc1

>  <scratch_subdir>  (101) 
['/opt/xchem-fragalysis-2/maxwin/BulkDock/SCRATCH/211014/C3409-P17']

>  <tags>  (101) 
['Fragmenstein placed']

>  <distance_score>  (101) 
0.783342

>  <original ID>  (101) 
YVWWNNHDWDVOBM-QMMMGPOBSA-N

>  <ref_mols>  (101) 
d0174a,d0587a

>  <SLURM_JOB_ID>  (101) 
211014

>  <ref_pdb>  (101) 
d0174a

$$$$
44463
     RDKit          3D

 12 12  0  0  0  0  0  0  0  0999 V2000
  -14.5707  -69.6648  -21.7735 C   0  0  0  0  0  0  0  0  0  0  0  0
  -13.6195  -69.8959  -20.6305 C   0  0  0  0  0  0  0  0  0  0  0  0
  -13.7106  -69.2535  -19.5824 O   0  0  0  0  0  0  0  0  0  0  0  0
  -12.5405  -70.9494  -20.8066 C   0  0  0  0  0  0  0  0  0  0  0  0
  -11.1794  -70.2599  -20.7512 C   0  0  2  0  0  0  0  0  0  0  0  0
  -10.7175  -69.9923  -22.0773 O   0  0  0  0  0  0  0  0  0  0  0  0
  -10.1214  -70.9846  -19.9791 C   0  0  0  0  0  0  0  0  0  0  0  0
  -10.1198  -70.9781  -18.5956 C   0  0  0  0  0  0  0  0  0  0  0  0
   -9.1419  -71.5142  -17.8386 N   0  0  0  0  0  0  0  0  0  0  0  0
   -8.1317  -72.0783  -18.5185 C   0  0  0  0  0  0  0  0  0  0  0  0
   -8.0240  -72.1524  -19.8520 N   0  0  0  0  0  0  0  0  0  0  0  0
   -9.0372  -71.6151  -20.5556 C   0  0  0  0  0  0  0  0  0  0  0  0
  1  2  1  0
  2  3  2  0
  2  4  1  0
  4  5  1  0
  5  6  1  6
  5  7  1  0
  7  8  2  0
  8  9  1  0
  9 10  2  0
 10 11  1  0
 11 12  2  0
 12  7  1  0
M  END
>  <SLURM_JOB_NAME>  (102) 
BulkDock.place:Flavi_NS5_RdRp:RdRp_knitwork_thumb_site_2_impure_split4000_batch001

>  <fragmenstein_error>  (102) 
['']

>  <HIPPO Compound ID>  (102) 
3409

>  <alias>  (102) 
None

>  <energy_score>  (102) 
-18.384215

>  <exports>  (102) 
['/opt/xchem-fragalysis-2/maxwin/BulkDock/OUTPUTS/RdRp_knitwork_thumb_site_2_impure_split4000_batch001_211014.sdf']

>  <fragmenstein_outcome>  (102) 
['acceptable']

>  <fragmenstein_mode>  (102) 
['expansion']

>  <HIPPO Pose ID>  (102) 
44463

>  <name>  (102) 
YVWWNNHDWDVOBM-QMMMGPOBSA-N

>  <fragmenstein_runtime>  (102) 
[3.270320177078247]

>  <csv_name>  (102) 
RdRp_knitwork_thumb_site_2_impure_split4000_batch001.csv

>  <inchikey>  (102) 
YVWWNNHDWDVOBM-QMMMGPOBSA-N

>  <original SMILES>  (102) 
CC(=O)C[C@H](O)c1cncnc1

>  <scratch_subdir>  (102) 
['/opt/xchem-fragalysis-2/maxwin/BulkDock/SCRATCH/211014/C3409-P48']

>  <tags>  (102) 
['Fragmenstein placed']

>  <distance_score>  (102) 
0.804797

>  <original ID>  (102) 
YVWWNNHDWDVOBM-QMMMGPOBSA-N

>  <ref_mols>  (102) 
d0174a,d0587a

>  <SLURM_JOB_ID>  (102) 
211014

>  <ref_pdb>  (102) 
d0587a

$$$$
44469
     RDKit          3D

 12 12  0  0  0  0  0  0  0  0999 V2000
  -13.3359  -69.4336  -20.2718 C   0  0  0  0  0  0  0  0  0  0  0  0
  -12.7801  -70.7798  -20.7380 C   0  0  0  0  0  0  0  0  0  0  0  0
  -13.5608  -71.2511  -21.9718 C   0  0  0  0  0  0  0  0  0  0  0  0
  -13.0296  -71.7166  -19.6952 O   0  0  0  0  0  0  0  0  0  0  0  0
  -11.2865  -70.5927  -21.1214 C   0  0  0  0  0  0  0  0  0  0  0  0
  -10.9422  -70.1528  -22.2199 O   0  0  0  0  0  0  0  0  0  0  0  0
  -10.1988  -70.9024  -20.1715 C   0  0  0  0  0  0  0  0  0  0  0  0
  -10.3364  -71.0807  -18.8124 C   0  0  0  0  0  0  0  0  0  0  0  0
   -9.3044  -71.3706  -17.9818 N   0  0  0  0  0  0  0  0  0  0  0  0
   -8.0976  -71.4761  -18.5639 C   0  0  0  0  0  0  0  0  0  0  0  0
   -7.8374  -71.2922  -19.8640 N   0  0  0  0  0  0  0  0  0  0  0  0
   -8.9029  -71.0033  -20.6430 C   0  0  0  0  0  0  0  0  0  0  0  0
  1  2  1  0
  2  3  1  0
  2  4  1  0
  2  5  1  0
  5  6  2  0
  5  7  1  0
  7  8  2  0
  8  9  1  0
  9 10  2  0
 10 11  1  0
 11 12  2  0
 12  7  1  0
M  END
>  <SLURM_JOB_NAME>  (103) 
BulkDock.place:Flavi_NS5_RdRp:RdRp_knitwork_thumb_site_2_impure_split4000_batch001

>  <fragmenstein_error>  (103) 
['']

>  <HIPPO Compound ID>  (103) 
3432

>  <alias>  (103) 
None

>  <energy_score>  (103) 
-32.155061

>  <exports>  (103) 
['/opt/xchem-fragalysis-2/maxwin/BulkDock/OUTPUTS/RdRp_knitwork_thumb_site_2_impure_split4000_batch001_211014.sdf']

>  <fragmenstein_outcome>  (103) 
['acceptable']

>  <fragmenstein_mode>  (103) 
['expansion']

>  <HIPPO Pose ID>  (103) 
44469

>  <name>  (103) 
MKCWOXBCCBUTAG-UHFFFAOYSA-N

>  <fragmenstein_runtime>  (103) 
[2.893019437789917]

>  <csv_name>  (103) 
RdRp_knitwork_thumb_site_2_impure_split4000_batch001.csv

>  <inchikey>  (103) 
MKCWOXBCCBUTAG-UHFFFAOYSA-N

>  <original SMILES>  (103) 
CC(C)(O)C(=O)c1cncnc1

>  <scratch_subdir>  (103) 
['/opt/xchem-fragalysis-2/maxwin/BulkDock/SCRATCH/211014/C3432-P17']

>  <tags>  (103) 
['Fragmenstein placed']

>  <distance_score>  (103) 
0.979282

>  <original ID>  (103) 
MKCWOXBCCBUTAG-UHFFFAOYSA-N

>  <ref_mols>  (103) 
d0174a,d0587a

>  <SLURM_JOB_ID>  (103) 
211014

>  <ref_pdb>  (103) 
d0174a

$$$$
44470
     RDKit          3D

 12 12  0  0  0  0  0  0  0  0999 V2000
  -13.3124  -69.4745  -20.2562 C   0  0  0  0  0  0  0  0  0  0  0  0
  -12.7387  -70.7871  -20.7900 C   0  0  0  0  0  0  0  0  0  0  0  0
  -13.5067  -71.2008  -22.0519 C   0  0  0  0  0  0  0  0  0  0  0  0
  -12.9763  -71.7829  -19.8008 O   0  0  0  0  0  0  0  0  0  0  0  0
  -11.2446  -70.5688  -21.1493 C   0  0  0  0  0  0  0  0  0  0  0  0
  -10.8907  -70.0947  -22.2302 O   0  0  0  0  0  0  0  0  0  0  0  0
  -10.1660  -70.8936  -20.1941 C   0  0  0  0  0  0  0  0  0  0  0  0
  -10.3171  -71.0972  -18.8400 C   0  0  0  0  0  0  0  0  0  0  0  0
   -9.2919  -71.4009  -18.0056 N   0  0  0  0  0  0  0  0  0  0  0  0
   -8.0802  -71.4980  -18.5788 C   0  0  0  0  0  0  0  0  0  0  0  0
   -7.8080  -71.2925  -19.8734 N   0  0  0  0  0  0  0  0  0  0  0  0
   -8.8662  -70.9869  -20.6557 C   0  0  0  0  0  0  0  0  0  0  0  0
  1  2  1  0
  2  3  1  0
  2  4  1  0
  2  5  1  0
  5  6  2  0
  5  7  1  0
  7  8  2  0
  8  9  1  0
  9 10  2  0
 10 11  1  0
 11 12  2  0
 12  7  1  0
M  END
>  <SLURM_JOB_NAME>  (104) 
BulkDock.place:Flavi_NS5_RdRp:RdRp_knitwork_thumb_site_2_impure_split4000_batch001

>  <fragmenstein_error>  (104) 
['']

>  <HIPPO Compound ID>  (104) 
3432

>  <alias>  (104) 
None

>  <energy_score>  (104) 
-32.340529

>  <exports>  (104) 
['/opt/xchem-fragalysis-2/maxwin/BulkDock/OUTPUTS/RdRp_knitwork_thumb_site_2_impure_split4000_batch001_211014.sdf']

>  <fragmenstein_outcome>  (104) 
['acceptable']

>  <fragmenstein_mode>  (104) 
['expansion']

>  <HIPPO Pose ID>  (104) 
44470

>  <name>  (104) 
MKCWOXBCCBUTAG-UHFFFAOYSA-N

>  <fragmenstein_runtime>  (104) 
[2.843550205230713]

>  <csv_name>  (104) 
RdRp_knitwork_thumb_site_2_impure_split4000_batch001.csv

>  <inchikey>  (104) 
MKCWOXBCCBUTAG-UHFFFAOYSA-N

>  <original SMILES>  (104) 
CC(C)(O)C(=O)c1cncnc1

>  <scratch_subdir>  (104) 
['/opt/xchem-fragalysis-2/maxwin/BulkDock/SCRATCH/211014/C3432-P48']

>  <tags>  (104) 
['Fragmenstein placed']

>  <distance_score>  (104) 
0.973041

>  <original ID>  (104) 
MKCWOXBCCBUTAG-UHFFFAOYSA-N

>  <ref_mols>  (104) 
d0174a,d0587a

>  <SLURM_JOB_ID>  (104) 
211014

>  <ref_pdb>  (104) 
d0587a

$$$$
44472
     RDKit          3D

 15 15  0  0  0  0  0  0  0  0999 V2000
  -14.8722  -69.9251  -23.2894 C   0  0  0  0  0  0  0  0  0  0  0  0
  -14.5603  -70.5111  -21.9188 C   0  0  0  0  0  0  0  0  0  0  0  0
  -13.4211  -69.7591  -21.2174 C   0  0  0  0  0  0  0  0  0  0  0  0
  -13.8919  -68.7438  -20.1792 C   0  0  0  0  0  0  0  0  0  0  0  0
  -14.8777  -67.7350  -20.7294 C   0  0  0  0  0  0  0  0  0  0  0  0
  -12.5100  -70.7575  -20.5089 C   0  0  0  0  0  0  0  0  0  0  0  0
  -12.9140  -71.3369  -19.4933 O   0  0  0  0  0  0  0  0  0  0  0  0
  -11.1292  -71.0581  -21.1402 C   0  0  1  0  0  0  0  0  0  0  0  0
  -10.6969  -70.0741  -22.0767 O   0  0  0  0  0  0  0  0  0  0  0  0
   -9.9982  -71.2593  -20.1672 C   0  0  0  0  0  0  0  0  0  0  0  0
  -10.0540  -71.0881  -18.7971 C   0  0  0  0  0  0  0  0  0  0  0  0
   -8.9938  -71.2368  -17.9716 N   0  0  0  0  0  0  0  0  0  0  0  0
   -7.8378  -71.5720  -18.5631 C   0  0  0  0  0  0  0  0  0  0  0  0
   -7.6525  -71.7519  -19.8752 N   0  0  0  0  0  0  0  0  0  0  0  0
   -8.7448  -71.6060  -20.6455 C   0  0  0  0  0  0  0  0  0  0  0  0
  1  2  1  0
  2  3  1  0
  3  4  1  0
  4  5  1  0
  3  6  1  0
  6  7  2  0
  6  8  1  0
  8  9  1  6
  8 10  1  0
 10 11  2  0
 11 12  1  0
 12 13  2  0
 13 14  1  0
 14 15  2  0
 15 10  1  0
M  END
>  <SLURM_JOB_NAME>  (105) 
BulkDock.place:Flavi_NS5_RdRp:RdRp_knitwork_thumb_site_2_impure_split4000_batch001

>  <fragmenstein_error>  (105) 
['']

>  <HIPPO Compound ID>  (105) 
3435

>  <alias>  (105) 
None

>  <energy_score>  (105) 
-29.476105

>  <exports>  (105) 
['/opt/xchem-fragalysis-2/maxwin/BulkDock/OUTPUTS/RdRp_knitwork_thumb_site_2_impure_split4000_batch001_211014.sdf']

>  <fragmenstein_outcome>  (105) 
['acceptable']

>  <fragmenstein_mode>  (105) 
['expansion']

>  <HIPPO Pose ID>  (105) 
44472

>  <name>  (105) 
MQLWOZOCBWWUHJ-NSHDSACASA-N

>  <fragmenstein_runtime>  (105) 
[6.757415771484375]

>  <csv_name>  (105) 
RdRp_knitwork_thumb_site_2_impure_split4000_batch001.csv

>  <inchikey>  (105) 
MQLWOZOCBWWUHJ-NSHDSACASA-N

>  <original SMILES>  (105) 
CCC(CC)C(=O)[C@@H](O)c1cncnc1

>  <scratch_subdir>  (105) 
['/opt/xchem-fragalysis-2/maxwin/BulkDock/SCRATCH/211014/C3435-P17']

>  <tags>  (105) 
['Fragmenstein placed']

>  <distance_score>  (105) 
0.828299

>  <original ID>  (105) 
MQLWOZOCBWWUHJ-NSHDSACASA-N

>  <ref_mols>  (105) 
d0174a,d0587a

>  <SLURM_JOB_ID>  (105) 
211014

>  <ref_pdb>  (105) 
d0174a

$$$$
44474
     RDKit          3D

 15 15  0  0  0  0  0  0  0  0999 V2000
  -15.0013  -70.0927  -23.1854 C   0  0  0  0  0  0  0  0  0  0  0  0
  -14.6126  -70.6179  -21.8130 C   0  0  0  0  0  0  0  0  0  0  0  0
  -13.4556  -69.8201  -21.1997 C   0  0  0  0  0  0  0  0  0  0  0  0
  -13.8981  -68.7726  -20.1825 C   0  0  0  0  0  0  0  0  0  0  0  0
  -14.9036  -67.7740  -20.7215 C   0  0  0  0  0  0  0  0  0  0  0  0
  -12.5017  -70.7764  -20.4878 C   0  0  0  0  0  0  0  0  0  0  0  0
  -12.8777  -71.3632  -19.4661 O   0  0  0  0  0  0  0  0  0  0  0  0
  -11.1157  -71.0296  -21.1274 C   0  0  1  0  0  0  0  0  0  0  0  0
  -10.6845  -69.9940  -22.0066 O   0  0  0  0  0  0  0  0  0  0  0  0
   -9.9856  -71.2679  -20.1624 C   0  0  0  0  0  0  0  0  0  0  0  0
  -10.0227  -71.0800  -18.7938 C   0  0  0  0  0  0  0  0  0  0  0  0
   -8.9572  -71.2475  -17.9786 N   0  0  0  0  0  0  0  0  0  0  0  0
   -7.8163  -71.6164  -18.5795 C   0  0  0  0  0  0  0  0  0  0  0  0
   -7.6489  -71.8107  -19.8923 N   0  0  0  0  0  0  0  0  0  0  0  0
   -8.7452  -71.6437  -20.6521 C   0  0  0  0  0  0  0  0  0  0  0  0
  1  2  1  0
  2  3  1  0
  3  4  1  0
  4  5  1  0
  3  6  1  0
  6  7  2  0
  6  8  1  0
  8  9  1  1
  8 10  1  0
 10 11  2  0
 11 12  1  0
 12 13  2  0
 13 14  1  0
 14 15  2  0
 15 10  1  0
M  END
>  <SLURM_JOB_NAME>  (106) 
BulkDock.place:Flavi_NS5_RdRp:RdRp_knitwork_thumb_site_2_impure_split4000_batch001

>  <fragmenstein_error>  (106) 
['']

>  <HIPPO Compound ID>  (106) 
3435

>  <alias>  (106) 
None

>  <energy_score>  (106) 
-29.907098

>  <exports>  (106) 
['/opt/xchem-fragalysis-2/maxwin/BulkDock/OUTPUTS/RdRp_knitwork_thumb_site_2_impure_split4000_batch001_211014.sdf']

>  <fragmenstein_outcome>  (106) 
['acceptable']

>  <fragmenstein_mode>  (106) 
['expansion']

>  <HIPPO Pose ID>  (106) 
44474

>  <name>  (106) 
MQLWOZOCBWWUHJ-NSHDSACASA-N

>  <fragmenstein_runtime>  (106) 
[6.985619068145752]

>  <csv_name>  (106) 
RdRp_knitwork_thumb_site_2_impure_split4000_batch001.csv

>  <inchikey>  (106) 
MQLWOZOCBWWUHJ-NSHDSACASA-N

>  <original SMILES>  (106) 
CCC(CC)C(=O)[C@@H](O)c1cncnc1

>  <scratch_subdir>  (106) 
['/opt/xchem-fragalysis-2/maxwin/BulkDock/SCRATCH/211014/C3435-P48']

>  <tags>  (106) 
['Fragmenstein placed']

>  <distance_score>  (106) 
0.843906

>  <original ID>  (106) 
MQLWOZOCBWWUHJ-NSHDSACASA-N

>  <ref_mols>  (106) 
d0174a,d0587a

>  <SLURM_JOB_ID>  (106) 
211014

>  <ref_pdb>  (106) 
d0587a

$$$$
44723
     RDKit          3D

 22 23  0  0  0  0  0  0  0  0999 V2000
  -12.3049  -75.6279  -22.1784 C   0  0  0  0  0  0  0  0  0  0  0  0
  -12.8923  -74.3109  -22.5307 C   0  0  0  0  0  0  0  0  0  0  0  0
  -12.8633  -73.6304  -23.7283 C   0  0  0  0  0  0  0  0  0  0  0  0
  -13.5511  -72.4329  -23.7537 N   0  0  0  0  0  0  0  0  0  0  0  0
  -13.9914  -72.1447  -22.5490 C   0  0  0  0  0  0  0  0  0  0  0  0
  -14.5816  -70.8207  -22.1484 C   0  0  0  0  0  0  0  0  0  0  0  0
  -13.5277  -69.6922  -22.1199 C   0  0  0  0  0  0  0  0  0  0  0  0
  -12.2392  -70.1401  -21.5719 N   0  0  0  0  0  0  0  0  0  0  0  0
  -12.1584  -70.3351  -20.1365 C   0  0  0  0  0  0  0  0  0  0  0  0
  -11.1972  -70.3432  -22.4656 C   0  0  0  0  0  0  0  0  0  0  0  0
  -11.2710  -70.0225  -23.6521 O   0  0  0  0  0  0  0  0  0  0  0  0
   -9.8945  -70.9114  -21.9580 C   0  0  0  0  0  0  0  0  0  0  0  0
   -9.0714  -69.9494  -21.1239 C   0  0  0  0  0  0  0  0  0  0  0  0
   -8.2540  -70.7189  -20.1267 C   0  0  0  0  0  0  0  0  0  0  0  0
   -7.0522  -71.1203  -20.4109 N   0  0  0  0  0  0  0  0  0  0  0  0
   -6.4148  -71.8530  -19.4503 N   0  0  0  0  0  0  0  0  0  0  0  0
   -6.9920  -72.3443  -18.3094 C   0  0  0  0  0  0  0  0  0  0  0  0
   -6.3574  -72.9177  -17.4312 O   0  0  0  0  0  0  0  0  0  0  0  0
   -8.3206  -72.1183  -18.1580 N   0  0  0  0  0  0  0  0  0  0  0  0
   -8.8897  -71.0601  -18.7880 C   0  0  0  0  0  0  0  0  0  0  0  0
   -9.7951  -70.4034  -18.3022 O   0  0  0  0  0  0  0  0  0  0  0  0
  -13.7513  -73.3869  -21.3751 S   0  0  0  0  0  0  0  0  0  0  0  0
  1  2  1  0
  2  3  2  0
  3  4  1  0
  4  5  2  0
  5  6  1  0
  6  7  1  0
  7  8  1  0
  8  9  1  0
  8 10  1  0
 10 11  2  0
 10 12  1  0
 12 13  1  0
 13 14  1  0
 14 15  2  0
 15 16  1  0
 16 17  1  0
 17 18  2  0
 17 19  1  0
 19 20  1  0
 20 21  2  0
  5 22  1  0
 22  2  1  0
 20 14  1  0
M  END
>  <SLURM_JOB_NAME>  (107) 
BulkDock.place:Flavi_NS5_RdRp:RdRp_knitwork_thumb_site_2_impure_split4000_batch001

>  <fragmenstein_error>  (107) 
['']

>  <HIPPO Compound ID>  (107) 
4854

>  <alias>  (107) 
None

>  <energy_score>  (107) 
-66.96417

>  <exports>  (107) 
['/opt/xchem-fragalysis-2/maxwin/BulkDock/OUTPUTS/RdRp_knitwork_thumb_site_2_impure_split4000_batch001_211014.sdf']

>  <fragmenstein_outcome>  (107) 
['acceptable']

>  <fragmenstein_mode>  (107) 
['expansion']

>  <HIPPO Pose ID>  (107) 
44723

>  <name>  (107) 
JZICDUMCBYMWTD-UHFFFAOYSA-N

>  <fragmenstein_runtime>  (107) 
[4.310009479522705]

>  <csv_name>  (107) 
RdRp_knitwork_thumb_site_2_impure_split4000_batch001.csv

>  <inchikey>  (107) 
JZICDUMCBYMWTD-UHFFFAOYSA-N

>  <original SMILES>  (107) 
Cc1cnc(CCN(C)C(=O)CCc2n[nH]c(=O)[nH]c2=O)s1

>  <scratch_subdir>  (107) 
['/opt/xchem-fragalysis-2/maxwin/BulkDock/SCRATCH/211014/C4854-P50']

>  <tags>  (107) 
['Fragmenstein placed']

>  <distance_score>  (107) 
0.977978

>  <original ID>  (107) 
JZICDUMCBYMWTD-UHFFFAOYSA-N

>  <ref_mols>  (107) 
d0379a,d0615a

>  <SLURM_JOB_ID>  (107) 
211014

>  <ref_pdb>  (107) 
d0615a

$$$$
45120
     RDKit          3D

 22 23  0  0  0  0  0  0  0  0999 V2000
   -6.7784  -72.3505  -17.5033 O   0  0  0  0  0  0  0  0  0  0  0  0
   -7.3976  -71.9048  -18.4651 C   0  0  0  0  0  0  0  0  0  0  0  0
   -6.7964  -71.1796  -19.4589 N   0  0  0  0  0  0  0  0  0  0  0  0
   -7.4417  -70.5433  -20.4815 N   0  0  0  0  0  0  0  0  0  0  0  0
   -8.7468  -70.5046  -20.4342 C   0  0  0  0  0  0  0  0  0  0  0  0
   -9.4458  -69.8939  -21.4575 N   0  0  0  0  0  0  0  0  0  0  0  0
  -10.2906  -70.6946  -22.3552 C   0  0  0  0  0  0  0  0  0  0  0  0
  -11.7669  -70.2887  -22.2639 C   0  0  0  0  0  0  0  0  0  0  0  0
  -12.3573  -70.6940  -21.0293 O   0  0  0  0  0  0  0  0  0  0  0  0
  -12.6427  -72.0381  -20.9538 C   0  0  0  0  0  0  0  0  0  0  0  0
  -12.9538  -72.5399  -19.7047 C   0  0  0  0  0  0  0  0  0  0  0  0
  -13.2891  -73.8839  -19.5928 C   0  0  0  0  0  0  0  0  0  0  0  0
  -13.3078  -74.6780  -20.7347 C   0  0  0  0  0  0  0  0  0  0  0  0
  -12.9727  -74.1067  -21.9632 C   0  0  0  0  0  0  0  0  0  0  0  0
  -13.0343  -74.9587  -23.2224 C   0  0  0  0  0  0  0  0  0  0  0  0
  -12.8045  -76.2835  -22.9857 F   0  0  0  0  0  0  0  0  0  0  0  0
  -12.1262  -74.5949  -24.1727 F   0  0  0  0  0  0  0  0  0  0  0  0
  -14.2546  -74.8997  -23.8312 F   0  0  0  0  0  0  0  0  0  0  0  0
  -12.6412  -72.7867  -22.0766 N   0  0  0  0  0  0  0  0  0  0  0  0
   -9.4638  -71.1048  -19.2101 C   0  0  0  0  0  0  0  0  0  0  0  0
  -10.5410  -70.6999  -18.8052 O   0  0  0  0  0  0  0  0  0  0  0  0
   -8.7422  -72.0546  -18.5561 N   0  0  0  0  0  0  0  0  0  0  0  0
  1  2  2  0
  2  3  1  0
  3  4  1  0
  4  5  2  0
  5  6  1  0
  6  7  1  0
  7  8  1  0
  8  9  1  0
  9 10  1  0
 10 11  2  0
 11 12  1  0
 12 13  2  0
 13 14  1  0
 14 15  1  0
 15 16  1  0
 15 17  1  0
 15 18  1  0
 14 19  2  0
  5 20  1  0
 20 21  2  0
 20 22  1  0
 22  2  1  0
 19 10  1  0
M  END
>  <SLURM_JOB_NAME>  (108) 
BulkDock.place:Flavi_NS5_RdRp:RdRp_knitwork_thumb_site_2_impure_split4000_batch001

>  <fragmenstein_error>  (108) 
['']

>  <HIPPO Compound ID>  (108) 
6698

>  <alias>  (108) 
None

>  <energy_score>  (108) 
-21.92355

>  <exports>  (108) 
['/opt/xchem-fragalysis-2/maxwin/BulkDock/OUTPUTS/RdRp_knitwork_thumb_site_2_impure_split4000_batch001_211014.sdf']

>  <fragmenstein_outcome>  (108) 
['acceptable']

>  <fragmenstein_mode>  (108) 
['expansion']

>  <HIPPO Pose ID>  (108) 
45120

>  <name>  (108) 
UIRMVHRJUCECTC-UHFFFAOYSA-N

>  <fragmenstein_runtime>  (108) 
[1.912113904953003]

>  <csv_name>  (108) 
RdRp_knitwork_thumb_site_2_impure_split4000_batch001.csv

>  <inchikey>  (108) 
UIRMVHRJUCECTC-UHFFFAOYSA-N

>  <original SMILES>  (108) 
O=c1[nH]nc(NCCOc2cccc(C(F)(F)F)n2)c(=O)[nH]1

>  <scratch_subdir>  (108) 
['/opt/xchem-fragalysis-2/maxwin/BulkDock/SCRATCH/211014/C6698-P35']

>  <tags>  (108) 
['Fragmenstein placed']

>  <distance_score>  (108) 
0.927275

>  <original ID>  (108) 
UIRMVHRJUCECTC-UHFFFAOYSA-N

>  <ref_mols>  (108) 
d0379a,d0615a

>  <SLURM_JOB_ID>  (108) 
211014

>  <ref_pdb>  (108) 
d0379a

$$$$
45121
     RDKit          3D

 22 23  0  0  0  0  0  0  0  0999 V2000
   -6.8096  -72.3637  -17.5489 O   0  0  0  0  0  0  0  0  0  0  0  0
   -7.4026  -71.8720  -18.5050 C   0  0  0  0  0  0  0  0  0  0  0  0
   -6.7795  -71.0930  -19.4447 N   0  0  0  0  0  0  0  0  0  0  0  0
   -7.3963  -70.4620  -20.4897 N   0  0  0  0  0  0  0  0  0  0  0  0
   -8.7021  -70.4510  -20.4912 C   0  0  0  0  0  0  0  0  0  0  0  0
   -9.3810  -69.8869  -21.5558 N   0  0  0  0  0  0  0  0  0  0  0  0
  -10.1822  -70.7421  -22.4442 C   0  0  0  0  0  0  0  0  0  0  0  0
  -11.6821  -70.4235  -22.3719 C   0  0  0  0  0  0  0  0  0  0  0  0
  -12.2628  -70.7927  -21.1220 O   0  0  0  0  0  0  0  0  0  0  0  0
  -12.4662  -72.1452  -20.9648 C   0  0  0  0  0  0  0  0  0  0  0  0
  -12.8485  -72.5712  -19.7069 C   0  0  0  0  0  0  0  0  0  0  0  0
  -13.0795  -73.9263  -19.5048 C   0  0  0  0  0  0  0  0  0  0  0  0
  -12.9223  -74.8086  -20.5689 C   0  0  0  0  0  0  0  0  0  0  0  0
  -12.5377  -74.3087  -21.8147 C   0  0  0  0  0  0  0  0  0  0  0  0
  -12.3360  -75.2796  -22.9706 C   0  0  0  0  0  0  0  0  0  0  0  0
  -13.2154  -76.3238  -22.9448 F   0  0  0  0  0  0  0  0  0  0  0  0
  -11.0947  -75.8440  -22.9666 F   0  0  0  0  0  0  0  0  0  0  0  0
  -12.4857  -74.7085  -24.2002 F   0  0  0  0  0  0  0  0  0  0  0  0
  -12.3009  -72.9783  -22.0143 N   0  0  0  0  0  0  0  0  0  0  0  0
   -9.4422  -71.0512  -19.2807 C   0  0  0  0  0  0  0  0  0  0  0  0
  -10.5113  -70.6262  -18.8751 O   0  0  0  0  0  0  0  0  0  0  0  0
   -8.7432  -72.0282  -18.6431 N   0  0  0  0  0  0  0  0  0  0  0  0
  1  2  2  0
  2  3  1  0
  3  4  1  0
  4  5  2  0
  5  6  1  0
  6  7  1  0
  7  8  1  0
  8  9  1  0
  9 10  1  0
 10 11  2  0
 11 12  1  0
 12 13  2  0
 13 14  1  0
 14 15  1  0
 15 16  1  0
 15 17  1  0
 15 18  1  0
 14 19  2  0
  5 20  1  0
 20 21  2  0
 20 22  1  0
 22  2  1  0
 19 10  1  0
M  END
>  <SLURM_JOB_NAME>  (109) 
BulkDock.place:Flavi_NS5_RdRp:RdRp_knitwork_thumb_site_2_impure_split4000_batch001

>  <fragmenstein_error>  (109) 
['']

>  <HIPPO Compound ID>  (109) 
6698

>  <alias>  (109) 
None

>  <energy_score>  (109) 
-21.929307

>  <exports>  (109) 
['/opt/xchem-fragalysis-2/maxwin/BulkDock/OUTPUTS/RdRp_knitwork_thumb_site_2_impure_split4000_batch001_211014.sdf']

>  <fragmenstein_outcome>  (109) 
['acceptable']

>  <fragmenstein_mode>  (109) 
['expansion']

>  <HIPPO Pose ID>  (109) 
45121

>  <name>  (109) 
UIRMVHRJUCECTC-UHFFFAOYSA-N

>  <fragmenstein_runtime>  (109) 
[1.5415949821472168]

>  <csv_name>  (109) 
RdRp_knitwork_thumb_site_2_impure_split4000_batch001.csv

>  <inchikey>  (109) 
UIRMVHRJUCECTC-UHFFFAOYSA-N

>  <original SMILES>  (109) 
O=c1[nH]nc(NCCOc2cccc(C(F)(F)F)n2)c(=O)[nH]1

>  <scratch_subdir>  (109) 
['/opt/xchem-fragalysis-2/maxwin/BulkDock/SCRATCH/211014/C6698-P50']

>  <tags>  (109) 
['Fragmenstein placed']

>  <distance_score>  (109) 
0.935005

>  <original ID>  (109) 
UIRMVHRJUCECTC-UHFFFAOYSA-N

>  <ref_mols>  (109) 
d0379a,d0615a

>  <SLURM_JOB_ID>  (109) 
211014

>  <ref_pdb>  (109) 
d0615a

$$$$
46347
     RDKit          3D

 18 19  0  0  0  0  0  0  0  0999 V2000
  -14.2709  -69.1059  -23.2113 C   0  0  0  0  0  0  0  0  0  0  0  0
  -14.1657  -70.5301  -22.6478 C   0  0  0  0  0  0  0  0  0  0  0  0
  -15.4177  -70.8044  -21.7930 C   0  0  0  0  0  0  0  0  0  0  0  0
  -14.1442  -71.5886  -23.7922 C   0  0  0  0  0  0  0  0  0  0  0  0
  -13.2335  -71.2954  -24.8410 O   0  0  0  0  0  0  0  0  0  0  0  0
  -12.9866  -70.6671  -21.7605 N   0  0  0  0  0  0  0  0  0  0  0  0
  -11.6977  -70.2741  -22.1382 C   0  0  0  0  0  0  0  0  0  0  0  0
  -11.3279  -70.4657  -23.3003 O   0  0  0  0  0  0  0  0  0  0  0  0
  -10.8163  -70.6589  -21.0956 N   0  0  0  0  0  0  0  0  0  0  0  0
  -11.1048  -71.2474  -19.7954 C   0  0  0  0  0  0  0  0  0  0  0  0
   -9.7484  -71.7289  -19.2847 C   0  0  0  0  0  0  0  0  0  0  0  0
   -8.7389  -70.7777  -19.9379 C   0  0  1  0  0  0  0  0  0  0  0  0
   -7.3431  -71.3047  -20.0759 C   0  0  0  0  0  0  0  0  0  0  0  0
   -6.9176  -72.5527  -20.5905 C   0  0  0  0  0  0  0  0  0  0  0  0
   -5.5506  -72.4880  -20.5726 C   0  0  0  0  0  0  0  0  0  0  0  0
   -5.1631  -71.2928  -20.0715 O   0  0  0  0  0  0  0  0  0  0  0  0
   -6.2842  -70.5486  -19.7419 N   0  0  0  0  0  0  0  0  0  0  0  0
   -9.3868  -70.4630  -21.2885 C   0  0  0  0  0  0  0  0  0  0  0  0
  1  2  1  0
  2  3  1  0
  2  4  1  0
  4  5  1  0
  2  6  1  0
  6  7  1  0
  7  8  2  0
  7  9  1  0
  9 10  1  0
 10 11  1  0
 11 12  1  0
 12 13  1  6
 13 14  1  0
 14 15  2  0
 15 16  1  0
 16 17  1  0
 12 18  1  0
 18  9  1  0
 17 13  2  0
M  END
>  <SLURM_JOB_NAME>  (110) 
BulkDock.place:Flavi_NS5_RdRp:RdRp_knitwork_thumb_site_2_impure_split4000_batch001

>  <fragmenstein_error>  (110) 
['']

>  <HIPPO Compound ID>  (110) 
2576

>  <alias>  (110) 
None

>  <energy_score>  (110) 
-17.717591

>  <exports>  (110) 
['/opt/xchem-fragalysis-2/maxwin/BulkDock/OUTPUTS/RdRp_knitwork_thumb_site_2_impure_split4000_batch001_211014.sdf']

>  <fragmenstein_outcome>  (110) 
['acceptable']

>  <fragmenstein_mode>  (110) 
['expansion']

>  <HIPPO Pose ID>  (110) 
46347

>  <name>  (110) 
HCFQKVQSVAJCEG-SECBINFHSA-N

>  <fragmenstein_runtime>  (110) 
[6.769750118255615]

>  <csv_name>  (110) 
RdRp_knitwork_thumb_site_2_impure_split4000_batch001.csv

>  <inchikey>  (110) 
HCFQKVQSVAJCEG-SECBINFHSA-N

>  <original SMILES>  (110) 
CC(C)(CO)NC(=O)N1CC[C@@H](c2ccon2)C1

>  <scratch_subdir>  (110) 
['/opt/xchem-fragalysis-2/maxwin/BulkDock/SCRATCH/211014/C2576-P22']

>  <tags>  (110) 
['Fragmenstein placed']

>  <distance_score>  (110) 
0.942626

>  <original ID>  (110) 
HCFQKVQSVAJCEG-SECBINFHSA-N

>  <ref_mols>  (110) 
d0248a,d0279a,d0615a

>  <SLURM_JOB_ID>  (110) 
211014

>  <ref_pdb>  (110) 
d0248a

$$$$
46349
     RDKit          3D

 18 19  0  0  0  0  0  0  0  0999 V2000
  -14.4295  -69.2167  -23.0103 C   0  0  0  0  0  0  0  0  0  0  0  0
  -14.2627  -70.6682  -22.5690 C   0  0  0  0  0  0  0  0  0  0  0  0
  -15.5107  -71.0608  -21.7621 C   0  0  0  0  0  0  0  0  0  0  0  0
  -14.1671  -71.6316  -23.7897 C   0  0  0  0  0  0  0  0  0  0  0  0
  -13.2515  -71.2132  -24.7918 O   0  0  0  0  0  0  0  0  0  0  0  0
  -13.1001  -70.8042  -21.6741 N   0  0  0  0  0  0  0  0  0  0  0  0
  -11.8282  -70.3170  -21.9865 C   0  0  0  0  0  0  0  0  0  0  0  0
  -11.4136  -70.3916  -23.1472 O   0  0  0  0  0  0  0  0  0  0  0  0
  -10.9632  -70.7371  -20.9482 N   0  0  0  0  0  0  0  0  0  0  0  0
  -11.2616  -71.4375  -19.7063 C   0  0  0  0  0  0  0  0  0  0  0  0
   -9.8969  -71.8578  -19.1692 C   0  0  0  0  0  0  0  0  0  0  0  0
   -8.9497  -70.7840  -19.7095 C   0  0  1  0  0  0  0  0  0  0  0  0
   -7.5136  -71.1763  -19.7805 C   0  0  0  0  0  0  0  0  0  0  0  0
   -6.9334  -72.2720  -20.4607 C   0  0  0  0  0  0  0  0  0  0  0  0
   -5.5962  -72.1724  -20.1883 C   0  0  0  0  0  0  0  0  0  0  0  0
   -5.3702  -71.0871  -19.4160 O   0  0  0  0  0  0  0  0  0  0  0  0
   -6.5711  -70.4589  -19.1502 N   0  0  0  0  0  0  0  0  0  0  0  0
   -9.5462  -70.4599  -21.0748 C   0  0  0  0  0  0  0  0  0  0  0  0
  1  2  1  0
  2  3  1  0
  2  4  1  0
  4  5  1  0
  2  6  1  0
  6  7  1  0
  7  8  2  0
  7  9  1  0
  9 10  1  0
 10 11  1  0
 11 12  1  0
 12 13  1  6
 13 14  1  0
 14 15  2  0
 15 16  1  0
 16 17  1  0
 12 18  1  0
 18  9  1  0
 17 13  2  0
M  END
>  <SLURM_JOB_NAME>  (111) 
BulkDock.place:Flavi_NS5_RdRp:RdRp_knitwork_thumb_site_2_impure_split4000_batch001

>  <fragmenstein_error>  (111) 
['']

>  <HIPPO Compound ID>  (111) 
2576

>  <alias>  (111) 
None

>  <energy_score>  (111) 
-17.429993

>  <exports>  (111) 
['/opt/xchem-fragalysis-2/maxwin/BulkDock/OUTPUTS/RdRp_knitwork_thumb_site_2_impure_split4000_batch001_211014.sdf']

>  <fragmenstein_outcome>  (111) 
['acceptable']

>  <fragmenstein_mode>  (111) 
['expansion']

>  <HIPPO Pose ID>  (111) 
46349

>  <name>  (111) 
HCFQKVQSVAJCEG-SECBINFHSA-N

>  <fragmenstein_runtime>  (111) 
[6.282138824462891]

>  <csv_name>  (111) 
RdRp_knitwork_thumb_site_2_impure_split4000_batch001.csv

>  <inchikey>  (111) 
HCFQKVQSVAJCEG-SECBINFHSA-N

>  <original SMILES>  (111) 
CC(C)(CO)NC(=O)N1CC[C@@H](c2ccon2)C1

>  <scratch_subdir>  (111) 
['/opt/xchem-fragalysis-2/maxwin/BulkDock/SCRATCH/211014/C2576-P29']

>  <tags>  (111) 
['Fragmenstein placed']

>  <distance_score>  (111) 
0.9633

>  <original ID>  (111) 
HCFQKVQSVAJCEG-SECBINFHSA-N

>  <ref_mols>  (111) 
d0248a,d0279a

>  <SLURM_JOB_ID>  (111) 
211014

>  <ref_pdb>  (111) 
d0279a

$$$$
46687
     RDKit          3D

 15 15  0  0  0  0  0  0  0  0999 V2000
  -15.3127  -69.5019  -22.9656 C   0  0  0  0  0  0  0  0  0  0  0  0
  -13.9869  -70.1820  -23.2778 C   0  0  2  0  0  0  0  0  0  0  0  0
  -14.1537  -71.2762  -24.3550 C   0  0  0  0  0  0  0  0  0  0  0  0
  -12.9065  -71.8755  -24.7039 O   0  0  0  0  0  0  0  0  0  0  0  0
  -13.2923  -70.7125  -22.0803 N   0  0  0  0  0  0  0  0  0  0  0  0
  -14.0890  -71.4711  -21.1193 C   0  0  0  0  0  0  0  0  0  0  0  0
  -11.8992  -70.6131  -22.0695 C   0  0  0  0  0  0  0  0  0  0  0  0
  -11.3170  -70.0167  -22.9823 O   0  0  0  0  0  0  0  0  0  0  0  0
  -11.1124  -71.2484  -20.9105 C   0  0  1  0  0  0  0  0  0  0  0  0
   -9.6161  -71.4501  -21.2907 C   0  0  0  0  0  0  0  0  0  0  0  0
   -8.5980  -70.7251  -20.4078 C   0  0  0  0  0  0  0  0  0  0  0  0
   -8.4727  -71.3083  -18.9987 C   0  0  0  0  0  0  0  0  0  0  0  0
   -9.6824  -71.8911  -18.4380 N   0  0  0  0  0  0  0  0  0  0  0  0
  -10.8198  -70.9907  -18.3421 C   0  0  0  0  0  0  0  0  0  0  0  0
  -11.3265  -70.3880  -19.6538 C   0  0  0  0  0  0  0  0  0  0  0  0
  2  1  1  1
  2  3  1  0
  3  4  1  0
  2  5  1  0
  5  6  1  0
  5  7  1  0
  7  8  2  0
  9  7  1  6
  9 10  1  0
 10 11  1  0
 11 12  1  0
 12 13  1  0
 13 14  1  0
 14 15  1  0
 15  9  1  0
M  END
>  <SLURM_JOB_NAME>  (112) 
BulkDock.place:Flavi_NS5_RdRp:RdRp_knitwork_thumb_site_2_impure_split4000_batch001

>  <fragmenstein_error>  (112) 
['']

>  <HIPPO Compound ID>  (112) 
1261

>  <alias>  (112) 
None

>  <energy_score>  (112) 
-50.119209

>  <exports>  (112) 
['/opt/xchem-fragalysis-2/maxwin/BulkDock/OUTPUTS/RdRp_knitwork_thumb_site_2_impure_split4000_batch001_211014.sdf']

>  <fragmenstein_outcome>  (112) 
['acceptable']

>  <fragmenstein_mode>  (112) 
['expansion']

>  <HIPPO Pose ID>  (112) 
46687

>  <name>  (112) 
FGHWWXWXGBNBJX-ZJUUUORDSA-N

>  <fragmenstein_runtime>  (112) 
[4.4379518032073975]

>  <csv_name>  (112) 
RdRp_knitwork_thumb_site_2_impure_split4000_batch001.csv

>  <inchikey>  (112) 
FGHWWXWXGBNBJX-ZJUUUORDSA-N

>  <original SMILES>  (112) 
C[C@H](CO)N(C)C(=O)[C@H]1CCCNCC1

>  <scratch_subdir>  (112) 
['/opt/xchem-fragalysis-2/maxwin/BulkDock/SCRATCH/211014/C1261-P22']

>  <tags>  (112) 
['Fragmenstein placed']

>  <distance_score>  (112) 
0.76204

>  <original ID>  (112) 
FGHWWXWXGBNBJX-ZJUUUORDSA-N

>  <ref_mols>  (112) 
d0248a,d0759a

>  <SLURM_JOB_ID>  (112) 
211014

>  <ref_pdb>  (112) 
d0248a

$$$$
46688
     RDKit          3D

 15 15  0  0  0  0  0  0  0  0999 V2000
  -14.8851  -69.6489  -22.9380 C   0  0  0  0  0  0  0  0  0  0  0  0
  -13.7190  -70.5614  -23.3062 C   0  0  2  0  0  0  0  0  0  0  0  0
  -14.1369  -71.7371  -24.2128 C   0  0  0  0  0  0  0  0  0  0  0  0
  -14.2510  -71.3147  -25.5611 O   0  0  0  0  0  0  0  0  0  0  0  0
  -12.9817  -71.0446  -22.1143 N   0  0  0  0  0  0  0  0  0  0  0  0
  -13.6603  -71.9765  -21.2251 C   0  0  0  0  0  0  0  0  0  0  0  0
  -11.6855  -70.5705  -21.9288 C   0  0  0  0  0  0  0  0  0  0  0  0
  -11.2076  -69.7259  -22.6902 O   0  0  0  0  0  0  0  0  0  0  0  0
  -10.8337  -71.1307  -20.7696 C   0  0  1  0  0  0  0  0  0  0  0  0
   -9.3767  -70.6436  -20.9372 C   0  0  0  0  0  0  0  0  0  0  0  0
   -8.3135  -71.3380  -20.0748 C   0  0  0  0  0  0  0  0  0  0  0  0
   -8.8154  -72.3686  -19.0652 C   0  0  0  0  0  0  0  0  0  0  0  0
   -9.6167  -71.8678  -17.9553 N   0  0  0  0  0  0  0  0  0  0  0  0
  -10.4225  -70.6937  -18.2302 C   0  0  0  0  0  0  0  0  0  0  0  0
  -11.4154  -70.7808  -19.3883 C   0  0  0  0  0  0  0  0  0  0  0  0
  2  1  1  1
  2  3  1  0
  3  4  1  0
  2  5  1  0
  5  6  1  0
  5  7  1  0
  7  8  2  0
  9  7  1  6
  9 10  1  0
 10 11  1  0
 11 12  1  0
 12 13  1  0
 13 14  1  0
 14 15  1  0
 15  9  1  0
M  END
>  <SLURM_JOB_NAME>  (113) 
BulkDock.place:Flavi_NS5_RdRp:RdRp_knitwork_thumb_site_2_impure_split4000_batch001

>  <fragmenstein_error>  (113) 
['']

>  <HIPPO Compound ID>  (113) 
1261

>  <alias>  (113) 
None

>  <energy_score>  (113) 
-41.266625

>  <exports>  (113) 
['/opt/xchem-fragalysis-2/maxwin/BulkDock/OUTPUTS/RdRp_knitwork_thumb_site_2_impure_split4000_batch001_211014.sdf']

>  <fragmenstein_outcome>  (113) 
['acceptable']

>  <fragmenstein_mode>  (113) 
['expansion']

>  <HIPPO Pose ID>  (113) 
46688

>  <name>  (113) 
FGHWWXWXGBNBJX-ZJUUUORDSA-N

>  <fragmenstein_runtime>  (113) 
[3.2793819904327393]

>  <csv_name>  (113) 
RdRp_knitwork_thumb_site_2_impure_split4000_batch001.csv

>  <inchikey>  (113) 
FGHWWXWXGBNBJX-ZJUUUORDSA-N

>  <original SMILES>  (113) 
C[C@H](CO)N(C)C(=O)[C@H]1CCCNCC1

>  <scratch_subdir>  (113) 
['/opt/xchem-fragalysis-2/maxwin/BulkDock/SCRATCH/211014/C1261-P56']

>  <tags>  (113) 
['Fragmenstein placed']

>  <distance_score>  (113) 
0.893012

>  <original ID>  (113) 
FGHWWXWXGBNBJX-ZJUUUORDSA-N

>  <ref_mols>  (113) 
d0248a,d0759a

>  <SLURM_JOB_ID>  (113) 
211014

>  <ref_pdb>  (113) 
d0759a

$$$$
49419
     RDKit          3D

 20 21  0  0  0  0  0  0  0  0999 V2000
  -14.6320  -69.4560  -22.7755 C   0  0  0  0  0  0  0  0  0  0  0  0
  -15.1046  -69.6208  -21.3472 C   0  0  0  0  0  0  0  0  0  0  0  0
  -13.7858  -69.7950  -20.1519 S   0  0  0  0  0  0  0  0  0  0  0  0
  -12.8751  -68.6857  -20.2839 O   0  0  0  0  0  0  0  0  0  0  0  0
  -14.3918  -70.1206  -18.8742 O   0  0  0  0  0  0  0  0  0  0  0  0
  -13.0086  -71.1869  -20.6320 N   0  0  0  0  0  0  0  0  0  0  0  0
  -11.8698  -71.0694  -21.5499 C   0  0  0  0  0  0  0  0  0  0  0  0
  -10.5870  -71.0810  -20.8050 C   0  0  0  0  0  0  0  0  0  0  0  0
   -9.4168  -70.4210  -21.1013 C   0  0  0  0  0  0  0  0  0  0  0  0
   -8.5469  -70.8470  -20.1467 N   0  0  0  0  0  0  0  0  0  0  0  0
   -7.1447  -70.5041  -20.0608 C   0  0  0  0  0  0  0  0  0  0  0  0
   -6.5231  -70.6792  -18.6758 C   0  0  0  0  0  0  0  0  0  0  0  0
   -5.6734  -71.9361  -18.5869 C   0  0  0  0  0  0  0  0  0  0  0  0
   -4.5488  -71.8763  -19.5027 N   0  0  0  0  0  0  0  0  0  0  0  0
   -4.2526  -72.7507  -20.4971 C   0  0  0  0  0  0  0  0  0  0  0  0
   -3.2836  -72.2602  -21.2340 N   0  0  0  0  0  0  0  0  0  0  0  0
   -3.0003  -71.0706  -20.6271 C   0  0  0  0  0  0  0  0  0  0  0  0
   -3.7591  -70.7843  -19.5657 N   0  0  0  0  0  0  0  0  0  0  0  0
   -9.1292  -71.7187  -19.3024 N   0  0  0  0  0  0  0  0  0  0  0  0
  -10.3917  -71.8588  -19.6879 N   0  0  0  0  0  0  0  0  0  0  0  0
  1  2  1  0
  2  3  1  0
  3  4  2  0
  3  5  2  0
  3  6  1  0
  6  7  1  0
  7  8  1  0
  8  9  2  0
  9 10  1  0
 10 11  1  0
 11 12  1  0
 12 13  1  0
 13 14  1  0
 14 15  1  0
 15 16  2  0
 16 17  1  0
 17 18  2  0
 10 19  1  0
 19 20  2  0
 20  8  1  0
 18 14  1  0
M  END
>  <SLURM_JOB_NAME>  (114) 
BulkDock.place:Flavi_NS5_RdRp:RdRp_knitwork_thumb_site_2_impure_split4000_batch001

>  <fragmenstein_error>  (114) 
['']

>  <HIPPO Compound ID>  (114) 
1623

>  <alias>  (114) 
None

>  <energy_score>  (114) 
-310.116568

>  <exports>  (114) 
['/opt/xchem-fragalysis-2/maxwin/BulkDock/OUTPUTS/RdRp_knitwork_thumb_site_2_impure_split4000_batch001_211014.sdf']

>  <fragmenstein_outcome>  (114) 
['acceptable']

>  <fragmenstein_mode>  (114) 
['expansion']

>  <HIPPO Pose ID>  (114) 
49419

>  <name>  (114) 
HGGFUOVXQYHLMH-UHFFFAOYSA-N

>  <fragmenstein_runtime>  (114) 
[4.416125059127808]

>  <csv_name>  (114) 
RdRp_knitwork_thumb_site_2_impure_split4000_batch001.csv

>  <inchikey>  (114) 
HGGFUOVXQYHLMH-UHFFFAOYSA-N

>  <original SMILES>  (114) 
CCS(=O)(=O)NCc1cn(CCCn2cncn2)nn1

>  <scratch_subdir>  (114) 
['/opt/xchem-fragalysis-2/maxwin/BulkDock/SCRATCH/211014/C1623-P17']

>  <tags>  (114) 
['Fragmenstein placed']

>  <distance_score>  (114) 
0.899414

>  <original ID>  (114) 
HGGFUOVXQYHLMH-UHFFFAOYSA-N

>  <ref_mols>  (114) 
d0174a,d0587a

>  <SLURM_JOB_ID>  (114) 
211014

>  <ref_pdb>  (114) 
d0174a

$$$$
49421
     RDKit          3D

 20 21  0  0  0  0  0  0  0  0999 V2000
  -14.7074  -69.6308  -22.7213 C   0  0  0  0  0  0  0  0  0  0  0  0
  -15.1653  -69.7080  -21.2816 C   0  0  0  0  0  0  0  0  0  0  0  0
  -13.8304  -69.8204  -20.0971 S   0  0  0  0  0  0  0  0  0  0  0  0
  -12.9381  -68.7037  -20.2835 O   0  0  0  0  0  0  0  0  0  0  0  0
  -14.4211  -70.1090  -18.8034 O   0  0  0  0  0  0  0  0  0  0  0  0
  -13.0387  -71.2164  -20.5403 N   0  0  0  0  0  0  0  0  0  0  0  0
  -11.9201  -71.1176  -21.4846 C   0  0  0  0  0  0  0  0  0  0  0  0
  -10.6219  -71.1388  -20.7695 C   0  0  0  0  0  0  0  0  0  0  0  0
   -9.4572  -70.4800  -21.0864 C   0  0  0  0  0  0  0  0  0  0  0  0
   -8.5669  -70.9164  -20.1564 N   0  0  0  0  0  0  0  0  0  0  0  0
   -7.1661  -70.5653  -20.0885 C   0  0  0  0  0  0  0  0  0  0  0  0
   -6.5409  -70.7032  -18.7024 C   0  0  0  0  0  0  0  0  0  0  0  0
   -5.7112  -71.9698  -18.5773 C   0  0  0  0  0  0  0  0  0  0  0  0
   -4.5941  -71.9666  -19.5034 N   0  0  0  0  0  0  0  0  0  0  0  0
   -4.2791  -72.9238  -20.4112 C   0  0  0  0  0  0  0  0  0  0  0  0
   -3.3143  -72.4880  -21.1867 N   0  0  0  0  0  0  0  0  0  0  0  0
   -3.0536  -71.2422  -20.6922 C   0  0  0  0  0  0  0  0  0  0  0  0
   -3.8254  -70.8710  -19.6675 N   0  0  0  0  0  0  0  0  0  0  0  0
   -9.1318  -71.7948  -19.3078 N   0  0  0  0  0  0  0  0  0  0  0  0
  -10.4032  -71.9278  -19.6654 N   0  0  0  0  0  0  0  0  0  0  0  0
  1  2  1  0
  2  3  1  0
  3  4  2  0
  3  5  2  0
  3  6  1  0
  6  7  1  0
  7  8  1  0
  8  9  2  0
  9 10  1  0
 10 11  1  0
 11 12  1  0
 12 13  1  0
 13 14  1  0
 14 15  1  0
 15 16  2  0
 16 17  1  0
 17 18  2  0
 10 19  1  0
 19 20  2  0
 20  8  1  0
 18 14  1  0
M  END
>  <SLURM_JOB_NAME>  (115) 
BulkDock.place:Flavi_NS5_RdRp:RdRp_knitwork_thumb_site_2_impure_split4000_batch001

>  <fragmenstein_error>  (115) 
['']

>  <HIPPO Compound ID>  (115) 
1623

>  <alias>  (115) 
None

>  <energy_score>  (115) 
-310.642798

>  <exports>  (115) 
['/opt/xchem-fragalysis-2/maxwin/BulkDock/OUTPUTS/RdRp_knitwork_thumb_site_2_impure_split4000_batch001_211014.sdf']

>  <fragmenstein_outcome>  (115) 
['acceptable']

>  <fragmenstein_mode>  (115) 
['expansion']

>  <HIPPO Pose ID>  (115) 
49421

>  <name>  (115) 
HGGFUOVXQYHLMH-UHFFFAOYSA-N

>  <fragmenstein_runtime>  (115) 
[3.4395720958709717]

>  <csv_name>  (115) 
RdRp_knitwork_thumb_site_2_impure_split4000_batch001.csv

>  <inchikey>  (115) 
HGGFUOVXQYHLMH-UHFFFAOYSA-N

>  <original SMILES>  (115) 
CCS(=O)(=O)NCc1cn(CCCn2cncn2)nn1

>  <scratch_subdir>  (115) 
['/opt/xchem-fragalysis-2/maxwin/BulkDock/SCRATCH/211014/C1623-P48']

>  <tags>  (115) 
['Fragmenstein placed']

>  <distance_score>  (115) 
0.910974

>  <original ID>  (115) 
HGGFUOVXQYHLMH-UHFFFAOYSA-N

>  <ref_mols>  (115) 
d0174a,d0587a

>  <SLURM_JOB_ID>  (115) 
211014

>  <ref_pdb>  (115) 
d0587a

$$$$
49514
     RDKit          3D

 14 15  0  0  0  0  0  0  0  0999 V2000
  -14.4096  -69.6008  -22.8487 C   0  0  0  0  0  0  0  0  0  0  0  0
  -15.0170  -69.9005  -21.4944 C   0  0  0  0  0  0  0  0  0  0  0  0
  -13.8488  -69.7474  -20.1504 S   0  0  0  0  0  0  0  0  0  0  0  0
  -13.1780  -68.4759  -20.2474 O   0  0  0  0  0  0  0  0  0  0  0  0
  -14.4986  -70.1576  -18.9204 O   0  0  0  0  0  0  0  0  0  0  0  0
  -12.7478  -70.9759  -20.4716 N   0  0  0  0  0  0  0  0  0  0  0  0
  -11.3773  -70.5600  -20.8572 C   0  0  0  0  0  0  0  0  0  0  0  0
  -10.3897  -71.7215  -20.6419 C   0  0  1  0  0  0  0  0  0  0  0  0
   -9.0016  -71.3955  -21.2204 C   0  0  0  0  0  0  0  0  0  0  0  0
   -8.1273  -70.6072  -20.2540 C   0  0  0  0  0  0  0  0  0  0  0  0
   -7.8258  -71.4282  -19.0047 C   0  0  0  0  0  0  0  0  0  0  0  0
   -9.0447  -72.0432  -18.3938 C   0  0  1  0  0  0  0  0  0  0  0  0
  -10.2358  -71.2090  -18.0251 C   0  0  0  0  0  0  0  0  0  0  0  0
  -10.3221  -72.1776  -19.1927 C   0  0  1  0  0  0  0  0  0  0  0  0
  1  2  1  0
  2  3  1  0
  3  4  2  0
  3  5  2  0
  3  6  1  0
  6  7  1  0
  8  7  1  1
  8  9  1  0
  9 10  1  0
 10 11  1  0
 12 11  1  6
 12 13  1  0
 14 13  1  1
 14  8  1  0
 14 12  1  0
M  END
>  <SLURM_JOB_NAME>  (116) 
BulkDock.place:Flavi_NS5_RdRp:RdRp_knitwork_thumb_site_2_impure_split4000_batch000

>  <fragmenstein_error>  (116) 
['']

>  <HIPPO Compound ID>  (116) 
983

>  <alias>  (116) 
None

>  <energy_score>  (116) 
-58.763609

>  <exports>  (116) 
['/opt/xchem-fragalysis-2/maxwin/BulkDock/OUTPUTS/RdRp_knitwork_thumb_site_2_impure_split4000_batch000_211013.sdf']

>  <fragmenstein_outcome>  (116) 
['acceptable']

>  <fragmenstein_mode>  (116) 
['expansion']

>  <HIPPO Pose ID>  (116) 
49514

>  <name>  (116) 
PQHDSDYOZFSKLV-IVZWLZJFSA-N

>  <fragmenstein_runtime>  (116) 
[4.23570442199707]

>  <csv_name>  (116) 
RdRp_knitwork_thumb_site_2_impure_split4000_batch000.csv

>  <inchikey>  (116) 
PQHDSDYOZFSKLV-IVZWLZJFSA-N

>  <original SMILES>  (116) 
CCS(=O)(=O)NC[C@H]1CCC[C@H]2C[C@@H]12

>  <scratch_subdir>  (116) 
['/opt/xchem-fragalysis-2/maxwin/BulkDock/SCRATCH/211013/C983-P17']

>  <tags>  (116) 
['Fragmenstein placed']

>  <distance_score>  (116) 
0.90683

>  <original ID>  (116) 
PQHDSDYOZFSKLV-IVZWLZJFSA-N

>  <ref_mols>  (116) 
d0174a,d0176a,d0503a,d0759a

>  <SLURM_JOB_ID>  (116) 
211013

>  <ref_pdb>  (116) 
d0174a

$$$$
49520
     RDKit          3D

 14 15  0  0  0  0  0  0  0  0999 V2000
  -14.4967  -69.6862  -22.7695 C   0  0  0  0  0  0  0  0  0  0  0  0
  -15.1186  -69.8694  -21.4006 C   0  0  0  0  0  0  0  0  0  0  0  0
  -13.9261  -69.7466  -20.0738 S   0  0  0  0  0  0  0  0  0  0  0  0
  -13.1936  -68.5133  -20.2095 O   0  0  0  0  0  0  0  0  0  0  0  0
  -14.5731  -70.1063  -18.8266 O   0  0  0  0  0  0  0  0  0  0  0  0
  -12.8903  -71.0348  -20.3827 N   0  0  0  0  0  0  0  0  0  0  0  0
  -11.4891  -70.6991  -20.7332 C   0  0  0  0  0  0  0  0  0  0  0  0
  -10.5614  -71.8687  -20.3529 C   0  0  1  0  0  0  0  0  0  0  0  0
   -9.1541  -71.6766  -20.9325 C   0  0  0  0  0  0  0  0  0  0  0  0
   -8.2605  -70.8063  -20.0561 C   0  0  0  0  0  0  0  0  0  0  0  0
   -8.0095  -71.4826  -18.7134 C   0  0  0  0  0  0  0  0  0  0  0  0
   -9.2609  -71.9773  -18.0614 C   0  0  1  0  0  0  0  0  0  0  0  0
  -10.4174  -71.0553  -17.8147 C   0  0  0  0  0  0  0  0  0  0  0  0
  -10.5351  -72.1497  -18.8604 C   0  0  1  0  0  0  0  0  0  0  0  0
  1  2  1  0
  2  3  1  0
  3  4  2  0
  3  5  2  0
  3  6  1  0
  6  7  1  0
  8  7  1  1
  8  9  1  0
  9 10  1  0
 10 11  1  0
 12 11  1  6
 12 13  1  0
 14 13  1  1
 14  8  1  0
 14 12  1  0
M  END
>  <SLURM_JOB_NAME>  (117) 
BulkDock.place:Flavi_NS5_RdRp:RdRp_knitwork_thumb_site_2_impure_split4000_batch000

>  <fragmenstein_error>  (117) 
['']

>  <HIPPO Compound ID>  (117) 
983

>  <alias>  (117) 
None

>  <energy_score>  (117) 
-58.046076

>  <exports>  (117) 
['/opt/xchem-fragalysis-2/maxwin/BulkDock/OUTPUTS/RdRp_knitwork_thumb_site_2_impure_split4000_batch000_211013.sdf']

>  <fragmenstein_outcome>  (117) 
['acceptable']

>  <fragmenstein_mode>  (117) 
['expansion']

>  <HIPPO Pose ID>  (117) 
49520

>  <name>  (117) 
PQHDSDYOZFSKLV-IVZWLZJFSA-N

>  <fragmenstein_runtime>  (117) 
[3.5700581073760986]

>  <csv_name>  (117) 
RdRp_knitwork_thumb_site_2_impure_split4000_batch000.csv

>  <inchikey>  (117) 
PQHDSDYOZFSKLV-IVZWLZJFSA-N

>  <original SMILES>  (117) 
CCS(=O)(=O)NC[C@H]1CCC[C@H]2C[C@@H]12

>  <scratch_subdir>  (117) 
['/opt/xchem-fragalysis-2/maxwin/BulkDock/SCRATCH/211013/C983-P18']

>  <tags>  (117) 
['Fragmenstein placed']

>  <distance_score>  (117) 
0.951634

>  <original ID>  (117) 
PQHDSDYOZFSKLV-IVZWLZJFSA-N

>  <ref_mols>  (117) 
d0174a,d0176a

>  <SLURM_JOB_ID>  (117) 
211013

>  <ref_pdb>  (117) 
d0176a

$$$$
49571
     RDKit          3D

 14 14  0  0  0  0  0  0  0  0999 V2000
  -14.3378  -69.6815  -22.8713 C   0  0  0  0  0  0  0  0  0  0  0  0
  -14.9346  -69.9354  -21.5036 C   0  0  0  0  0  0  0  0  0  0  0  0
  -13.7352  -69.8542  -20.1791 S   0  0  0  0  0  0  0  0  0  0  0  0
  -12.9543  -68.6532  -20.3270 O   0  0  0  0  0  0  0  0  0  0  0  0
  -14.4223  -70.1467  -18.9339 O   0  0  0  0  0  0  0  0  0  0  0  0
  -12.7687  -71.1944  -20.4411 N   0  0  0  0  0  0  0  0  0  0  0  0
  -11.4144  -71.0673  -21.0302 C   0  0  0  0  0  0  0  0  0  0  0  0
  -10.3804  -70.3762  -20.1033 C   0  0  1  0  0  0  0  0  0  0  0  0
  -10.5078  -70.7337  -18.6393 C   0  0  0  0  0  0  0  0  0  0  0  0
   -9.7864  -71.5315  -17.8406 C   0  0  0  0  0  0  0  0  0  0  0  0
   -8.6019  -72.3922  -18.1445 C   0  0  0  0  0  0  0  0  0  0  0  0
   -7.6024  -71.8834  -19.1715 C   0  0  0  0  0  0  0  0  0  0  0  0
   -8.1880  -71.7029  -20.5652 C   0  0  0  0  0  0  0  0  0  0  0  0
   -8.9672  -70.4032  -20.7092 C   0  0  0  0  0  0  0  0  0  0  0  0
  1  2  1  0
  2  3  1  0
  3  4  2  0
  3  5  2  0
  3  6  1  0
  6  7  1  0
  8  7  1  6
  8  9  1  0
  9 10  2  0
 10 11  1  0
 11 12  1  0
 12 13  1  0
 13 14  1  0
 14  8  1  0
M  END
>  <SLURM_JOB_NAME>  (118) 
BulkDock.place:Flavi_NS5_RdRp:RdRp_knitwork_thumb_site_2_impure_split4000_batch000

>  <fragmenstein_error>  (118) 
['']

>  <HIPPO Compound ID>  (118) 
1194

>  <alias>  (118) 
None

>  <energy_score>  (118) 
-31.771399

>  <exports>  (118) 
['/opt/xchem-fragalysis-2/maxwin/BulkDock/OUTPUTS/RdRp_knitwork_thumb_site_2_impure_split4000_batch000_211013.sdf']

>  <fragmenstein_outcome>  (118) 
['acceptable']

>  <fragmenstein_mode>  (118) 
['expansion']

>  <HIPPO Pose ID>  (118) 
49571

>  <name>  (118) 
FIMPFXBHOKBSJP-JTQLQIEISA-N

>  <fragmenstein_runtime>  (118) 
[2.8028318881988525]

>  <csv_name>  (118) 
RdRp_knitwork_thumb_site_2_impure_split4000_batch000.csv

>  <inchikey>  (118) 
FIMPFXBHOKBSJP-JTQLQIEISA-N

>  <original SMILES>  (118) 
CCS(=O)(=O)NC[C@H]1C=CCCCC1

>  <scratch_subdir>  (118) 
['/opt/xchem-fragalysis-2/maxwin/BulkDock/SCRATCH/211013/C1194-P17']

>  <tags>  (118) 
['Fragmenstein placed']

>  <distance_score>  (118) 
0.754695

>  <original ID>  (118) 
FIMPFXBHOKBSJP-JTQLQIEISA-N

>  <ref_mols>  (118) 
d0174a,d0176a,d0503a,d0759a

>  <SLURM_JOB_ID>  (118) 
211013

>  <ref_pdb>  (118) 
d0174a

$$$$
49572
     RDKit          3D

 14 14  0  0  0  0  0  0  0  0999 V2000
  -14.4262  -69.7807  -22.7978 C   0  0  0  0  0  0  0  0  0  0  0  0
  -15.0254  -69.9608  -21.4187 C   0  0  0  0  0  0  0  0  0  0  0  0
  -13.8112  -69.8589  -20.1093 S   0  0  0  0  0  0  0  0  0  0  0  0
  -13.0202  -68.6709  -20.3030 O   0  0  0  0  0  0  0  0  0  0  0  0
  -14.4795  -70.1222  -18.8480 O   0  0  0  0  0  0  0  0  0  0  0  0
  -12.8606  -71.2169  -20.3591 N   0  0  0  0  0  0  0  0  0  0  0  0
  -11.4763  -71.0893  -20.8729 C   0  0  0  0  0  0  0  0  0  0  0  0
  -10.4914  -70.4051  -19.8870 C   0  0  1  0  0  0  0  0  0  0  0  0
  -10.6522  -70.8105  -18.4415 C   0  0  0  0  0  0  0  0  0  0  0  0
   -9.9218  -71.5874  -17.6304 C   0  0  0  0  0  0  0  0  0  0  0  0
   -8.6809  -72.3789  -17.8920 C   0  0  0  0  0  0  0  0  0  0  0  0
   -7.6845  -71.8244  -18.8957 C   0  0  0  0  0  0  0  0  0  0  0  0
   -8.2514  -71.6647  -20.2982 C   0  0  0  0  0  0  0  0  0  0  0  0
   -9.0670  -70.3878  -20.4569 C   0  0  0  0  0  0  0  0  0  0  0  0
  1  2  1  0
  2  3  1  0
  3  4  2  0
  3  5  2  0
  3  6  1  0
  6  7  1  0
  8  7  1  6
  8  9  1  0
  9 10  2  0
 10 11  1  0
 11 12  1  0
 12 13  1  0
 13 14  1  0
 14  8  1  0
M  END
>  <SLURM_JOB_NAME>  (119) 
BulkDock.place:Flavi_NS5_RdRp:RdRp_knitwork_thumb_site_2_impure_split4000_batch000

>  <fragmenstein_error>  (119) 
['']

>  <HIPPO Compound ID>  (119) 
1194

>  <alias>  (119) 
None

>  <energy_score>  (119) 
-31.589366

>  <exports>  (119) 
['/opt/xchem-fragalysis-2/maxwin/BulkDock/OUTPUTS/RdRp_knitwork_thumb_site_2_impure_split4000_batch000_211013.sdf']

>  <fragmenstein_outcome>  (119) 
['acceptable']

>  <fragmenstein_mode>  (119) 
['expansion']

>  <HIPPO Pose ID>  (119) 
49572

>  <name>  (119) 
FIMPFXBHOKBSJP-JTQLQIEISA-N

>  <fragmenstein_runtime>  (119) 
[2.4320366382598877]

>  <csv_name>  (119) 
RdRp_knitwork_thumb_site_2_impure_split4000_batch000.csv

>  <inchikey>  (119) 
FIMPFXBHOKBSJP-JTQLQIEISA-N

>  <original SMILES>  (119) 
CCS(=O)(=O)NC[C@H]1C=CCCCC1

>  <scratch_subdir>  (119) 
['/opt/xchem-fragalysis-2/maxwin/BulkDock/SCRATCH/211013/C1194-P18']

>  <tags>  (119) 
['Fragmenstein placed']

>  <distance_score>  (119) 
0.738284

>  <original ID>  (119) 
FIMPFXBHOKBSJP-JTQLQIEISA-N

>  <ref_mols>  (119) 
d0174a,d0176a

>  <SLURM_JOB_ID>  (119) 
211013

>  <ref_pdb>  (119) 
d0176a

$$$$
49587
     RDKit          3D

 13 13  0  0  0  0  0  0  0  0999 V2000
   -4.8719  -70.6617  -18.9212 C   0  0  0  0  0  0  0  0  0  0  0  0
   -5.4093  -71.8879  -19.6405 C   0  0  0  0  0  0  0  0  0  0  0  0
   -7.0926  -72.3220  -19.1809 S   0  0  0  0  0  0  0  0  0  0  0  0
   -7.2818  -71.9623  -17.7900 O   0  0  0  0  0  0  0  0  0  0  0  0
   -7.3291  -73.6780  -19.6257 O   0  0  0  0  0  0  0  0  0  0  0  0
   -8.1396  -71.3474  -20.1036 N   0  0  0  0  0  0  0  0  0  0  0  0
   -7.6170  -70.0939  -20.6491 C   0  0  0  0  0  0  0  0  0  0  0  0
   -9.5733  -71.2702  -19.5665 C   0  0  1  0  0  0  0  0  0  0  0  0
  -10.4170  -70.1800  -20.2657 C   0  0  0  0  0  0  0  0  0  0  0  0
  -10.9988  -70.6626  -21.5874 C   0  0  0  0  0  0  0  0  0  0  0  0
  -12.1535  -71.6400  -21.4007 C   0  0  0  0  0  0  0  0  0  0  0  0
  -12.0851  -72.5616  -19.8336 S   0  0  0  0  0  0  0  0  0  0  0  0
  -10.2618  -72.6550  -19.6613 C   0  0  0  0  0  0  0  0  0  0  0  0
  1  2  1  0
  2  3  1  0
  3  4  2  0
  3  5  2  0
  3  6  1  0
  6  7  1  0
  8  6  1  6
  8  9  1  0
  9 10  1  0
 10 11  1  0
 11 12  1  0
 12 13  1  0
 13  8  1  0
M  END
>  <SLURM_JOB_NAME>  (120) 
BulkDock.place:Flavi_NS5_RdRp:RdRp_knitwork_thumb_site_2_impure_split4000_batch000

>  <fragmenstein_error>  (120) 
['']

>  <HIPPO Compound ID>  (120) 
1318

>  <alias>  (120) 
None

>  <energy_score>  (120) 
-31.929477

>  <exports>  (120) 
['/opt/xchem-fragalysis-2/maxwin/BulkDock/OUTPUTS/RdRp_knitwork_thumb_site_2_impure_split4000_batch000_211013.sdf']

>  <fragmenstein_outcome>  (120) 
['acceptable']

>  <fragmenstein_mode>  (120) 
['expansion']

>  <HIPPO Pose ID>  (120) 
49587

>  <name>  (120) 
GCVWQVAVSNNZOD-QMMMGPOBSA-N

>  <fragmenstein_runtime>  (120) 
[6.152364730834961]

>  <csv_name>  (120) 
RdRp_knitwork_thumb_site_2_impure_split4000_batch000.csv

>  <inchikey>  (120) 
GCVWQVAVSNNZOD-QMMMGPOBSA-N

>  <original SMILES>  (120) 
CCS(=O)(=O)N(C)[C@H]1CCCSC1

>  <scratch_subdir>  (120) 
['/opt/xchem-fragalysis-2/maxwin/BulkDock/SCRATCH/211013/C1318-P17']

>  <tags>  (120) 
['Fragmenstein placed']

>  <distance_score>  (120) 
0.508345

>  <original ID>  (120) 
GCVWQVAVSNNZOD-QMMMGPOBSA-N

>  <ref_mols>  (120) 
d0174a,d0176a,d0503a,d0759a

>  <SLURM_JOB_ID>  (120) 
211013

>  <ref_pdb>  (120) 
d0174a

$$$$
49592
     RDKit          3D

 13 13  0  0  0  0  0  0  0  0999 V2000
  -14.6096  -69.5828  -22.7525 C   0  0  0  0  0  0  0  0  0  0  0  0
  -15.0560  -69.9300  -21.3498 C   0  0  0  0  0  0  0  0  0  0  0  0
  -13.7433  -69.9188  -20.1336 S   0  0  0  0  0  0  0  0  0  0  0  0
  -13.1071  -68.6234  -20.1710 O   0  0  0  0  0  0  0  0  0  0  0  0
  -14.3144  -70.4215  -18.8984 O   0  0  0  0  0  0  0  0  0  0  0  0
  -12.6552  -71.0541  -20.7559 N   0  0  0  0  0  0  0  0  0  0  0  0
  -11.5404  -70.5268  -21.5728 C   0  0  0  0  0  0  0  0  0  0  0  0
  -12.3100  -72.3209  -20.0391 C   0  0  2  0  0  0  0  0  0  0  0  0
  -13.4573  -73.3291  -20.1469 C   0  0  0  0  0  0  0  0  0  0  0  0
  -13.3058  -74.5579  -19.2465 C   0  0  0  0  0  0  0  0  0  0  0  0
  -11.8689  -74.9004  -18.8853 C   0  0  0  0  0  0  0  0  0  0  0  0
  -11.0675  -73.6061  -17.8794 S   0  0  0  0  0  0  0  0  0  0  0  0
  -11.8033  -72.1000  -18.6122 C   0  0  0  0  0  0  0  0  0  0  0  0
  1  2  1  0
  2  3  1  0
  3  4  2  0
  3  5  2  0
  3  6  1  0
  6  7  1  0
  8  6  1  1
  8  9  1  0
  9 10  1  0
 10 11  1  0
 11 12  1  0
 12 13  1  0
 13  8  1  0
M  END
>  <SLURM_JOB_NAME>  (121) 
BulkDock.place:Flavi_NS5_RdRp:RdRp_knitwork_thumb_site_2_impure_split4000_batch000

>  <fragmenstein_error>  (121) 
['']

>  <HIPPO Compound ID>  (121) 
1318

>  <alias>  (121) 
None

>  <energy_score>  (121) 
-32.159947

>  <exports>  (121) 
['/opt/xchem-fragalysis-2/maxwin/BulkDock/OUTPUTS/RdRp_knitwork_thumb_site_2_impure_split4000_batch000_211013.sdf']

>  <fragmenstein_outcome>  (121) 
['acceptable']

>  <fragmenstein_mode>  (121) 
['expansion']

>  <HIPPO Pose ID>  (121) 
49592

>  <name>  (121) 
GCVWQVAVSNNZOD-MRVPVSSYSA-N

>  <fragmenstein_runtime>  (121) 
[5.659226655960083]

>  <csv_name>  (121) 
RdRp_knitwork_thumb_site_2_impure_split4000_batch000.csv

>  <inchikey>  (121) 
GCVWQVAVSNNZOD-MRVPVSSYSA-N

>  <original SMILES>  (121) 
CCS(=O)(=O)N(C)[C@@H]1CCCSC1

>  <scratch_subdir>  (121) 
['/opt/xchem-fragalysis-2/maxwin/BulkDock/SCRATCH/211013/C1318-P18']

>  <tags>  (121) 
['Fragmenstein placed']

>  <distance_score>  (121) 
0.494687

>  <original ID>  (121) 
GCVWQVAVSNNZOD-MRVPVSSYSA-N

>  <ref_mols>  (121) 
d0174a,d0176a

>  <SLURM_JOB_ID>  (121) 
211013

>  <ref_pdb>  (121) 
d0176a

$$$$
49604
     RDKit          3D

 14 15  0  0  0  0  0  0  0  0999 V2000
  -14.3417  -69.6282  -22.8354 C   0  0  0  0  0  0  0  0  0  0  0  0
  -14.9278  -69.7914  -21.4502 C   0  0  0  0  0  0  0  0  0  0  0  0
  -13.7064  -69.8072  -20.1425 S   0  0  0  0  0  0  0  0  0  0  0  0
  -12.8339  -68.6717  -20.2946 O   0  0  0  0  0  0  0  0  0  0  0  0
  -14.4069  -70.0551  -18.8953 O   0  0  0  0  0  0  0  0  0  0  0  0
  -12.8472  -71.2058  -20.4062 N   0  0  0  0  0  0  0  0  0  0  0  0
  -11.5736  -71.2341  -21.1403 C   0  0  0  0  0  0  0  0  0  0  0  0
  -10.3642  -70.7009  -20.3644 C   0  0  2  0  0  0  0  0  0  0  0  0
   -9.1485  -70.6443  -21.3210 C   0  0  0  0  0  0  0  0  0  0  0  0
   -7.9361  -70.6794  -20.4068 C   0  0  0  0  0  0  0  0  0  0  0  0
   -8.3268  -71.6886  -19.3414 C   0  0  0  0  0  0  0  0  0  0  0  0
   -9.8197  -71.4991  -19.1738 C   0  0  0  0  0  0  0  0  0  0  0  0
  -10.5660  -72.5074  -18.3327 C   0  0  0  0  0  0  0  0  0  0  0  0
  -10.3369  -71.1271  -17.7982 C   0  0  0  0  0  0  0  0  0  0  0  0
  1  2  1  0
  2  3  1  0
  3  4  2  0
  3  5  2  0
  3  6  1  0
  6  7  1  0
  8  7  1  6
  8  9  1  0
  9 10  1  0
 10 11  1  0
 11 12  1  0
 12 13  1  0
 13 14  1  0
 12  8  1  0
 14 12  1  0
M  END
>  <SLURM_JOB_NAME>  (122) 
BulkDock.place:Flavi_NS5_RdRp:RdRp_knitwork_thumb_site_2_impure_split4000_batch000

>  <fragmenstein_error>  (122) 
['']

>  <HIPPO Compound ID>  (122) 
1347

>  <alias>  (122) 
None

>  <energy_score>  (122) 
-43.756827

>  <exports>  (122) 
['/opt/xchem-fragalysis-2/maxwin/BulkDock/OUTPUTS/RdRp_knitwork_thumb_site_2_impure_split4000_batch000_211013.sdf']

>  <fragmenstein_outcome>  (122) 
['acceptable']

>  <fragmenstein_mode>  (122) 
['expansion']

>  <HIPPO Pose ID>  (122) 
49604

>  <name>  (122) 
RYNRCDZHMZMZHU-VIFPVBQESA-N

>  <fragmenstein_runtime>  (122) 
[5.0348594188690186]

>  <csv_name>  (122) 
RdRp_knitwork_thumb_site_2_impure_split4000_batch000.csv

>  <inchikey>  (122) 
RYNRCDZHMZMZHU-VIFPVBQESA-N

>  <original SMILES>  (122) 
CCS(=O)(=O)NC[C@@H]1CCCC12CC2

>  <scratch_subdir>  (122) 
['/opt/xchem-fragalysis-2/maxwin/BulkDock/SCRATCH/211013/C1347-P17']

>  <tags>  (122) 
['Fragmenstein placed']

>  <distance_score>  (122) 
0.839568

>  <original ID>  (122) 
RYNRCDZHMZMZHU-VIFPVBQESA-N

>  <ref_mols>  (122) 
d0174a,d0176a,d0503a,d0759a

>  <SLURM_JOB_ID>  (122) 
211013

>  <ref_pdb>  (122) 
d0174a

$$$$
49606
     RDKit          3D

 14 15  0  0  0  0  0  0  0  0999 V2000
  -14.4477  -69.7270  -22.7833 C   0  0  0  0  0  0  0  0  0  0  0  0
  -15.0268  -69.9001  -21.3947 C   0  0  0  0  0  0  0  0  0  0  0  0
  -13.7856  -69.8659  -20.1070 S   0  0  0  0  0  0  0  0  0  0  0  0
  -12.9767  -68.6852  -20.2785 O   0  0  0  0  0  0  0  0  0  0  0  0
  -14.4374  -70.1621  -18.8450 O   0  0  0  0  0  0  0  0  0  0  0  0
  -12.8660  -71.2271  -20.4351 N   0  0  0  0  0  0  0  0  0  0  0  0
  -11.4955  -71.0951  -20.9657 C   0  0  0  0  0  0  0  0  0  0  0  0
  -10.4873  -70.5357  -19.9434 C   0  0  2  0  0  0  0  0  0  0  0  0
   -9.1530  -70.2270  -20.6443 C   0  0  0  0  0  0  0  0  0  0  0  0
   -8.3898  -71.5458  -20.5997 C   0  0  0  0  0  0  0  0  0  0  0  0
   -8.7251  -72.1375  -19.2373 C   0  0  0  0  0  0  0  0  0  0  0  0
  -10.0358  -71.4906  -18.8439 C   0  0  0  0  0  0  0  0  0  0  0  0
  -10.9590  -72.1433  -17.8449 C   0  0  0  0  0  0  0  0  0  0  0  0
  -10.1126  -70.9892  -17.4111 C   0  0  0  0  0  0  0  0  0  0  0  0
  1  2  1  0
  2  3  1  0
  3  4  2  0
  3  5  2  0
  3  6  1  0
  6  7  1  0
  8  7  1  6
  8  9  1  0
  9 10  1  0
 10 11  1  0
 11 12  1  0
 12 13  1  0
 13 14  1  0
 12  8  1  0
 14 12  1  0
M  END
>  <SLURM_JOB_NAME>  (123) 
BulkDock.place:Flavi_NS5_RdRp:RdRp_knitwork_thumb_site_2_impure_split4000_batch000

>  <fragmenstein_error>  (123) 
['']

>  <HIPPO Compound ID>  (123) 
1347

>  <alias>  (123) 
None

>  <energy_score>  (123) 
-44.7171

>  <exports>  (123) 
['/opt/xchem-fragalysis-2/maxwin/BulkDock/OUTPUTS/RdRp_knitwork_thumb_site_2_impure_split4000_batch000_211013.sdf']

>  <fragmenstein_outcome>  (123) 
['acceptable']

>  <fragmenstein_mode>  (123) 
['expansion']

>  <HIPPO Pose ID>  (123) 
49606

>  <name>  (123) 
RYNRCDZHMZMZHU-VIFPVBQESA-N

>  <fragmenstein_runtime>  (123) 
[4.823850154876709]

>  <csv_name>  (123) 
RdRp_knitwork_thumb_site_2_impure_split4000_batch000.csv

>  <inchikey>  (123) 
RYNRCDZHMZMZHU-VIFPVBQESA-N

>  <original SMILES>  (123) 
CCS(=O)(=O)NC[C@@H]1CCCC12CC2

>  <scratch_subdir>  (123) 
['/opt/xchem-fragalysis-2/maxwin/BulkDock/SCRATCH/211013/C1347-P18']

>  <tags>  (123) 
['Fragmenstein placed']

>  <distance_score>  (123) 
0.893962

>  <original ID>  (123) 
RYNRCDZHMZMZHU-VIFPVBQESA-N

>  <ref_mols>  (123) 
d0174a,d0176a

>  <SLURM_JOB_ID>  (123) 
211013

>  <ref_pdb>  (123) 
d0176a

$$$$
49648
     RDKit          3D

 14 15  0  0  0  0  0  0  0  0999 V2000
  -14.3235  -69.5390  -22.8398 C   0  0  0  0  0  0  0  0  0  0  0  0
  -14.9543  -69.7428  -21.4788 C   0  0  0  0  0  0  0  0  0  0  0  0
  -13.7646  -69.8001  -20.1445 S   0  0  0  0  0  0  0  0  0  0  0  0
  -12.9384  -68.6200  -20.1930 O   0  0  0  0  0  0  0  0  0  0  0  0
  -14.4679  -70.1635  -18.9276 O   0  0  0  0  0  0  0  0  0  0  0  0
  -12.8398  -71.1374  -20.5169 N   0  0  0  0  0  0  0  0  0  0  0  0
  -11.5068  -70.9566  -21.0993 C   0  0  0  0  0  0  0  0  0  0  0  0
  -10.3753  -70.9647  -20.0758 C   0  0  2  0  0  0  0  0  0  0  0  0
   -9.0609  -70.4460  -20.6451 C   0  0  0  0  0  0  0  0  0  0  0  0
   -7.8763  -71.3758  -20.4017 C   0  0  0  0  0  0  0  0  0  0  0  0
   -7.8062  -71.8468  -18.9554 C   0  0  0  0  0  0  0  0  0  0  0  0
   -9.0269  -72.6900  -18.6070 C   0  0  0  0  0  0  0  0  0  0  0  0
  -10.3226  -72.0645  -19.0175 C   0  0  1  0  0  0  0  0  0  0  0  0
  -10.6398  -70.6654  -18.5964 C   0  0  0  0  0  0  0  0  0  0  0  0
  1  2  1  0
  2  3  1  0
  3  4  2  0
  3  5  2  0
  3  6  1  0
  6  7  1  0
  8  7  1  6
  8  9  1  0
  9 10  1  0
 10 11  1  0
 11 12  1  0
 13 12  1  1
 13 14  1  0
 13  8  1  0
 14  8  1  0
M  END
>  <SLURM_JOB_NAME>  (124) 
BulkDock.place:Flavi_NS5_RdRp:RdRp_knitwork_thumb_site_2_impure_split4000_batch000

>  <fragmenstein_error>  (124) 
['']

>  <HIPPO Compound ID>  (124) 
1362

>  <alias>  (124) 
None

>  <energy_score>  (124) 
-137.456981

>  <exports>  (124) 
['/opt/xchem-fragalysis-2/maxwin/BulkDock/OUTPUTS/RdRp_knitwork_thumb_site_2_impure_split4000_batch000_211013.sdf']

>  <fragmenstein_outcome>  (124) 
['acceptable']

>  <fragmenstein_mode>  (124) 
['expansion']

>  <HIPPO Pose ID>  (124) 
49648

>  <name>  (124) 
JXZBMESOOIKWIG-VHSXEESVSA-N

>  <fragmenstein_runtime>  (124) 
[2.7589292526245117]

>  <csv_name>  (124) 
RdRp_knitwork_thumb_site_2_impure_split4000_batch000.csv

>  <inchikey>  (124) 
JXZBMESOOIKWIG-VHSXEESVSA-N

>  <original SMILES>  (124) 
CCS(=O)(=O)NC[C@]12CCCC[C@H]1C2

>  <scratch_subdir>  (124) 
['/opt/xchem-fragalysis-2/maxwin/BulkDock/SCRATCH/211013/C1362-P17']

>  <tags>  (124) 
['Fragmenstein placed']

>  <distance_score>  (124) 
0.860083

>  <original ID>  (124) 
JXZBMESOOIKWIG-VHSXEESVSA-N

>  <ref_mols>  (124) 
d0174a,d0176a,d0503a,d0759a

>  <SLURM_JOB_ID>  (124) 
211013

>  <ref_pdb>  (124) 
d0174a

$$$$
49666
     RDKit          3D

 22 24  0  0  0  0  0  0  0  0999 V2000
  -12.9768  -68.8990  -22.8149 C   0  0  0  0  0  0  0  0  0  0  0  0
  -14.2242  -69.2522  -22.0433 C   0  0  1  0  0  0  0  0  0  0  0  0
  -15.1782  -70.0744  -22.8841 C   0  0  0  0  0  0  0  0  0  0  0  0
  -16.4784  -70.2994  -22.4438 C   0  0  0  0  0  0  0  0  0  0  0  0
  -17.4632  -70.6571  -23.3575 C   0  0  0  0  0  0  0  0  0  0  0  0
  -17.1851  -70.7524  -24.7152 C   0  0  0  0  0  0  0  0  0  0  0  0
  -15.8840  -70.6404  -25.1534 C   0  0  0  0  0  0  0  0  0  0  0  0
  -14.8841  -70.3512  -24.2391 C   0  0  0  0  0  0  0  0  0  0  0  0
  -13.7976  -69.8746  -20.3988 S   0  0  0  0  0  0  0  0  0  0  0  0
  -12.9005  -68.9115  -19.7967 O   0  0  0  0  0  0  0  0  0  0  0  0
  -14.9952  -70.2293  -19.6678 O   0  0  0  0  0  0  0  0  0  0  0  0
  -12.9387  -71.2747  -20.5963 N   0  0  0  0  0  0  0  0  0  0  0  0
  -11.5543  -71.2091  -21.1287 C   0  0  2  0  0  0  0  0  0  0  0  0
  -11.4245  -71.9532  -22.4652 C   0  0  0  0  0  0  0  0  0  0  0  0
  -12.3639  -72.8896  -22.7474 N   0  0  0  0  0  0  0  0  0  0  0  0
  -12.2593  -73.4980  -23.9441 C   0  0  0  0  0  0  0  0  0  0  0  0
  -11.2866  -73.1957  -24.8668 C   0  0  0  0  0  0  0  0  0  0  0  0
  -10.3937  -72.2194  -24.4938 C   0  0  0  0  0  0  0  0  0  0  0  0
  -10.4371  -71.5866  -23.3064 N   0  0  0  0  0  0  0  0  0  0  0  0
  -10.6230  -71.8429  -20.1263 C   0  0  0  0  0  0  0  0  0  0  0  0
  -10.2578  -71.1273  -18.8491 C   0  0  0  0  0  0  0  0  0  0  0  0
   -9.2290  -71.2876  -19.9349 C   0  0  0  0  0  0  0  0  0  0  0  0
  2  1  1  6
  2  3  1  0
  3  4  2  0
  4  5  1  0
  5  6  2  0
  6  7  1  0
  7  8  2  0
  2  9  1  0
  9 10  2  0
  9 11  2  0
  9 12  1  0
 13 12  1  1
 13 14  1  0
 14 15  2  0
 15 16  1  0
 16 17  2  0
 17 18  1  0
 18 19  2  0
 13 20  1  0
 20 21  1  0
 21 22  1  0
  8  3  1  0
 19 14  1  0
 22 20  1  0
M  END
>  <SLURM_JOB_NAME>  (125) 
BulkDock.place:Flavi_NS5_RdRp:RdRp_knitwork_thumb_site_2_impure_split4000_batch001

>  <fragmenstein_error>  (125) 
['']

>  <HIPPO Compound ID>  (125) 
5802

>  <alias>  (125) 
None

>  <energy_score>  (125) 
-48.472573

>  <exports>  (125) 
['/opt/xchem-fragalysis-2/maxwin/BulkDock/OUTPUTS/RdRp_knitwork_thumb_site_2_impure_split4000_batch001_211014.sdf']

>  <fragmenstein_outcome>  (125) 
['acceptable']

>  <fragmenstein_mode>  (125) 
['expansion']

>  <HIPPO Pose ID>  (125) 
49666

>  <name>  (125) 
WLRKTYFDLUYNAQ-WFASDCNBSA-N

>  <fragmenstein_runtime>  (125) 
[69.25387573242188]

>  <csv_name>  (125) 
RdRp_knitwork_thumb_site_2_impure_split4000_batch001.csv

>  <inchikey>  (125) 
WLRKTYFDLUYNAQ-WFASDCNBSA-N

>  <original SMILES>  (125) 
C[C@@H](c1ccccc1)S(=O)(=O)N[C@H](c1ncccn1)C1CC1

>  <scratch_subdir>  (125) 
['/opt/xchem-fragalysis-2/maxwin/BulkDock/SCRATCH/211014/C5802-P48']

>  <tags>  (125) 
['Fragmenstein placed']

>  <distance_score>  (125) 
0.9886

>  <original ID>  (125) 
WLRKTYFDLUYNAQ-WFASDCNBSA-N

>  <ref_mols>  (125) 
d0174a,d0587a

>  <SLURM_JOB_ID>  (125) 
211014

>  <ref_pdb>  (125) 
d0587a

$$$$
49776
     RDKit          3D

 15 16  0  0  0  0  0  0  0  0999 V2000
  -14.3387  -69.6496  -22.8217 C   0  0  0  0  0  0  0  0  0  0  0  0
  -14.9211  -69.9045  -21.4486 C   0  0  0  0  0  0  0  0  0  0  0  0
  -13.7178  -69.8362  -20.1254 S   0  0  0  0  0  0  0  0  0  0  0  0
  -12.9257  -68.6418  -20.2655 O   0  0  0  0  0  0  0  0  0  0  0  0
  -14.4124  -70.1284  -18.8841 O   0  0  0  0  0  0  0  0  0  0  0  0
  -12.7548  -71.1720  -20.3744 N   0  0  0  0  0  0  0  0  0  0  0  0
  -11.4844  -71.1072  -21.1099 C   0  0  0  0  0  0  0  0  0  0  0  0
  -10.3257  -70.4827  -20.3059 C   0  0  2  0  0  0  0  0  0  0  0  0
   -9.0506  -70.4453  -21.1669 C   0  0  0  0  0  0  0  0  0  0  0  0
   -8.3961  -71.8199  -21.3485 C   0  0  0  0  0  0  0  0  0  0  0  0
   -8.6077  -72.7636  -20.1674 C   0  0  0  0  0  0  0  0  0  0  0  0
   -8.7754  -71.9599  -18.9162 C   0  0  0  0  0  0  0  0  0  0  0  0
   -8.2603  -72.5010  -17.6046 C   0  0  0  0  0  0  0  0  0  0  0  0
   -7.5004  -71.4171  -18.3081 C   0  0  0  0  0  0  0  0  0  0  0  0
  -10.0353  -71.1124  -18.9196 C   0  0  0  0  0  0  0  0  0  0  0  0
  1  2  1  0
  2  3  1  0
  3  4  2  0
  3  5  2  0
  3  6  1  0
  6  7  1  0
  8  7  1  6
  8  9  1  0
  9 10  1  0
 10 11  1  0
 11 12  1  0
 12 13  1  0
 13 14  1  0
 12 15  1  0
 15  8  1  0
 14 12  1  0
M  END
>  <SLURM_JOB_NAME>  (126) 
BulkDock.place:Flavi_NS5_RdRp:RdRp_knitwork_thumb_site_2_impure_split4000_batch000

>  <fragmenstein_error>  (126) 
['']

>  <HIPPO Compound ID>  (126) 
1465

>  <alias>  (126) 
None

>  <energy_score>  (126) 
-77.484017

>  <exports>  (126) 
['/opt/xchem-fragalysis-2/maxwin/BulkDock/OUTPUTS/RdRp_knitwork_thumb_site_2_impure_split4000_batch000_211013.sdf']

>  <fragmenstein_outcome>  (126) 
['acceptable']

>  <fragmenstein_mode>  (126) 
['expansion']

>  <HIPPO Pose ID>  (126) 
49776

>  <name>  (126) 
GZOFUQGTEOHYBG-SNVBAGLBSA-N

>  <fragmenstein_runtime>  (126) 
[3.1723756790161133]

>  <csv_name>  (126) 
RdRp_knitwork_thumb_site_2_impure_split4000_batch000.csv

>  <inchikey>  (126) 
GZOFUQGTEOHYBG-SNVBAGLBSA-N

>  <original SMILES>  (126) 
CCS(=O)(=O)NC[C@@H]1CCCC2(CC2)C1

>  <scratch_subdir>  (126) 
['/opt/xchem-fragalysis-2/maxwin/BulkDock/SCRATCH/211013/C1465-P17']

>  <tags>  (126) 
['Fragmenstein placed']

>  <distance_score>  (126) 
0.895391

>  <original ID>  (126) 
GZOFUQGTEOHYBG-SNVBAGLBSA-N

>  <ref_mols>  (126) 
d0174a,d0176a,d0503a,d0759a

>  <SLURM_JOB_ID>  (126) 
211013

>  <ref_pdb>  (126) 
d0174a

$$$$
49783
     RDKit          3D

 15 16  0  0  0  0  0  0  0  0999 V2000
  -14.7408  -69.5264  -22.7570 C   0  0  0  0  0  0  0  0  0  0  0  0
  -15.2335  -69.5707  -21.3255 C   0  0  0  0  0  0  0  0  0  0  0  0
  -13.9143  -69.7910  -20.1396 S   0  0  0  0  0  0  0  0  0  0  0  0
  -12.9691  -68.7115  -20.2787 O   0  0  0  0  0  0  0  0  0  0  0  0
  -14.5011  -70.1221  -18.8547 O   0  0  0  0  0  0  0  0  0  0  0  0
  -13.2060  -71.2141  -20.6650 N   0  0  0  0  0  0  0  0  0  0  0  0
  -11.8829  -71.1790  -21.3071 C   0  0  0  0  0  0  0  0  0  0  0  0
  -10.7537  -71.0387  -20.2812 C   0  0  2  0  0  0  0  0  0  0  0  0
   -9.3967  -71.0125  -21.0017 C   0  0  0  0  0  0  0  0  0  0  0  0
   -8.2225  -70.8866  -20.0301 C   0  0  0  0  0  0  0  0  0  0  0  0
   -8.2691  -71.9259  -18.9145 C   0  0  0  0  0  0  0  0  0  0  0  0
   -9.6286  -71.9355  -18.2587 C   0  0  0  0  0  0  0  0  0  0  0  0
   -9.7428  -72.4437  -16.8395 C   0  0  0  0  0  0  0  0  0  0  0  0
   -9.8941  -70.9762  -17.1254 C   0  0  0  0  0  0  0  0  0  0  0  0
  -10.7614  -72.1596  -19.2294 C   0  0  0  0  0  0  0  0  0  0  0  0
  1  2  1  0
  2  3  1  0
  3  4  2  0
  3  5  2  0
  3  6  1  0
  6  7  1  0
  8  7  1  6
  8  9  1  0
  9 10  1  0
 10 11  1  0
 11 12  1  0
 12 13  1  0
 13 14  1  0
 12 15  1  0
 15  8  1  0
 14 12  1  0
M  END
>  <SLURM_JOB_NAME>  (127) 
BulkDock.place:Flavi_NS5_RdRp:RdRp_knitwork_thumb_site_2_impure_split4000_batch000

>  <fragmenstein_error>  (127) 
['']

>  <HIPPO Compound ID>  (127) 
1465

>  <alias>  (127) 
None

>  <energy_score>  (127) 
-77.324368

>  <exports>  (127) 
['/opt/xchem-fragalysis-2/maxwin/BulkDock/OUTPUTS/RdRp_knitwork_thumb_site_2_impure_split4000_batch000_211013.sdf']

>  <fragmenstein_outcome>  (127) 
['acceptable']

>  <fragmenstein_mode>  (127) 
['expansion']

>  <HIPPO Pose ID>  (127) 
49783

>  <name>  (127) 
GZOFUQGTEOHYBG-SNVBAGLBSA-N

>  <fragmenstein_runtime>  (127) 
[3.406409740447998]

>  <csv_name>  (127) 
RdRp_knitwork_thumb_site_2_impure_split4000_batch000.csv

>  <inchikey>  (127) 
GZOFUQGTEOHYBG-SNVBAGLBSA-N

>  <original SMILES>  (127) 
CCS(=O)(=O)NC[C@@H]1CCCC2(CC2)C1

>  <scratch_subdir>  (127) 
['/opt/xchem-fragalysis-2/maxwin/BulkDock/SCRATCH/211013/C1465-P18']

>  <tags>  (127) 
['Fragmenstein placed']

>  <distance_score>  (127) 
0.974299

>  <original ID>  (127) 
GZOFUQGTEOHYBG-SNVBAGLBSA-N

>  <ref_mols>  (127) 
d0174a,d0176a

>  <SLURM_JOB_ID>  (127) 
211013

>  <ref_pdb>  (127) 
d0176a

$$$$
50094
     RDKit          3D

 20 22  0  0  0  0  0  0  0  0999 V2000
  -13.3250  -68.4497  -20.3495 O   0  0  0  0  0  0  0  0  0  0  0  0
  -13.9168  -69.7571  -20.2190 S   0  0  0  0  0  0  0  0  0  0  0  0
  -14.4704  -70.2021  -18.9544 O   0  0  0  0  0  0  0  0  0  0  0  0
  -15.1462  -69.9734  -21.4930 C   0  0  0  0  0  0  0  0  0  0  0  0
  -14.7394  -69.4131  -22.8477 C   0  0  0  0  0  0  0  0  0  0  0  0
  -13.7747  -70.2308  -23.6341 C   0  0  0  0  0  0  0  0  0  0  0  0
  -13.6172  -71.6348  -23.6960 C   0  0  0  0  0  0  0  0  0  0  0  0
  -12.6390  -72.0048  -24.5238 N   0  0  0  0  0  0  0  0  0  0  0  0
  -12.1433  -70.8234  -25.0495 O   0  0  0  0  0  0  0  0  0  0  0  0
  -12.8283  -69.7774  -24.5256 C   0  0  0  0  0  0  0  0  0  0  0  0
  -12.7703  -70.9277  -20.6109 N   0  0  0  0  0  0  0  0  0  0  0  0
  -11.3836  -70.4216  -20.7228 C   0  0  0  0  0  0  0  0  0  0  0  0
  -10.3448  -71.5487  -20.7315 C   0  0  1  0  0  0  0  0  0  0  0  0
   -8.9635  -70.9359  -21.0657 C   0  0  0  0  0  0  0  0  0  0  0  0
   -7.8169  -71.6261  -20.3369 C   0  0  0  0  0  0  0  0  0  0  0  0
   -7.9820  -71.5334  -18.8196 C   0  0  0  0  0  0  0  0  0  0  0  0
   -9.4210  -71.7264  -18.3839 C   0  0  0  0  0  0  0  0  0  0  0  0
  -10.0531  -70.7330  -17.4288 C   0  0  0  0  0  0  0  0  0  0  0  0
   -9.6522  -72.0832  -16.9309 C   0  0  0  0  0  0  0  0  0  0  0  0
  -10.3083  -72.3656  -19.4238 C   0  0  0  0  0  0  0  0  0  0  0  0
  1  2  2  0
  2  3  2  0
  2  4  1  0
  4  5  1  0
  5  6  1  0
  6  7  1  0
  7  8  2  0
  8  9  1  0
  9 10  1  0
  2 11  1  0
 11 12  1  0
 13 12  1  1
 13 14  1  0
 14 15  1  0
 15 16  1  0
 16 17  1  0
 17 18  1  0
 18 19  1  0
 17 20  1  0
 10  6  2  0
 20 13  1  0
 19 17  1  0
M  END
>  <SLURM_JOB_NAME>  (128) 
BulkDock.place:Flavi_NS5_RdRp:RdRp_knitwork_thumb_site_2_impure_split4000_batch000

>  <fragmenstein_error>  (128) 
['']

>  <HIPPO Compound ID>  (128) 
1791

>  <alias>  (128) 
None

>  <energy_score>  (128) 
-39.405708

>  <exports>  (128) 
['/opt/xchem-fragalysis-2/maxwin/BulkDock/OUTPUTS/RdRp_knitwork_thumb_site_2_impure_split4000_batch000_211013.sdf']

>  <fragmenstein_outcome>  (128) 
['acceptable']

>  <fragmenstein_mode>  (128) 
['expansion']

>  <HIPPO Pose ID>  (128) 
50094

>  <name>  (128) 
WNGUZQCJHVJZEU-LBPRGKRZSA-N

>  <fragmenstein_runtime>  (128) 
[3.8485867977142334]

>  <csv_name>  (128) 
RdRp_knitwork_thumb_site_2_impure_split4000_batch000.csv

>  <inchikey>  (128) 
WNGUZQCJHVJZEU-LBPRGKRZSA-N

>  <original SMILES>  (128) 
O=S(=O)(CCc1cnoc1)NC[C@H]1CCCC2(CC2)C1

>  <scratch_subdir>  (128) 
['/opt/xchem-fragalysis-2/maxwin/BulkDock/SCRATCH/211013/C1791-P17']

>  <tags>  (128) 
['Fragmenstein placed']

>  <distance_score>  (128) 
0.898656

>  <original ID>  (128) 
WNGUZQCJHVJZEU-LBPRGKRZSA-N

>  <ref_mols>  (128) 
d0174a,d0176a,d0503a,d0759a

>  <SLURM_JOB_ID>  (128) 
211013

>  <ref_pdb>  (128) 
d0174a

$$$$
50432
     RDKit          3D

 21 22  0  0  0  0  0  0  0  0999 V2000
  -15.3852  -70.1648  -21.0517 C   0  0  0  0  0  0  0  0  0  0  0  0
  -14.8616  -70.1558  -22.4938 C   0  0  0  0  0  0  0  0  0  0  0  0
  -14.4166  -68.7407  -22.8380 C   0  0  0  0  0  0  0  0  0  0  0  0
  -13.8054  -71.2824  -22.6990 C   0  0  2  0  0  0  0  0  0  0  0  0
  -12.6259  -71.1660  -21.8142 N   0  0  0  0  0  0  0  0  0  0  0  0
  -11.7733  -69.9549  -21.9206 C   0  0  0  0  0  0  0  0  0  0  0  0
  -11.5546  -69.9023  -23.1422 O   0  0  0  0  0  0  0  0  0  0  0  0
  -10.8893  -70.7073  -20.8961 C   0  0  0  0  0  0  0  0  0  0  0  0
   -9.6740  -71.2347  -21.3647 C   0  0  0  0  0  0  0  0  0  0  0  0
   -8.7124  -71.7322  -20.4842 C   0  0  0  0  0  0  0  0  0  0  0  0
   -9.0129  -71.6475  -19.1257 C   0  0  0  0  0  0  0  0  0  0  0  0
   -8.3162  -72.0410  -18.0122 N   0  0  0  0  0  0  0  0  0  0  0  0
   -9.0704  -71.7315  -16.9174 C   0  0  0  0  0  0  0  0  0  0  0  0
  -10.1839  -71.1182  -17.2498 N   0  0  0  0  0  0  0  0  0  0  0  0
  -10.1831  -71.0841  -18.6252 C   0  0  0  0  0  0  0  0  0  0  0  0
  -11.1398  -70.5749  -19.5157 C   0  0  0  0  0  0  0  0  0  0  0  0
  -13.5040  -71.5688  -24.2043 C   0  0  0  0  0  0  0  0  0  0  0  0
  -14.0823  -70.9216  -25.0814 O   0  0  0  0  0  0  0  0  0  0  0  0
  -12.6589  -72.6269  -24.5451 N   0  0  0  0  0  0  0  0  0  0  0  0
  -12.3100  -72.7985  -25.9473 C   0  0  0  0  0  0  0  0  0  0  0  0
  -11.9281  -73.4560  -23.6079 C   0  0  0  0  0  0  0  0  0  0  0  0
  1  2  1  0
  2  3  1  0
  2  4  1  0
  4  5  1  1
  5  6  1  0
  6  7  2  0
  6  8  1  0
  8  9  2  0
  9 10  1  0
 10 11  2  0
 11 12  1  0
 12 13  1  0
 13 14  2  0
 14 15  1  0
 15 16  2  0
  4 17  1  0
 17 18  2  0
 17 19  1  0
 19 20  1  0
 19 21  1  0
 16  8  1  0
 15 11  1  0
M  END
>  <SLURM_JOB_NAME>  (129) 
BulkDock.place:Flavi_NS5_RdRp:RdRp_knitwork_thumb_site_2_impure_split4000_batch000

>  <fragmenstein_error>  (129) 
['']

>  <HIPPO Compound ID>  (129) 
2428

>  <alias>  (129) 
None

>  <energy_score>  (129) 
-98.049462

>  <exports>  (129) 
['/opt/xchem-fragalysis-2/maxwin/BulkDock/OUTPUTS/RdRp_knitwork_thumb_site_2_impure_split4000_batch000_211013.sdf']

>  <fragmenstein_outcome>  (129) 
['acceptable']

>  <fragmenstein_mode>  (129) 
['expansion']

>  <HIPPO Pose ID>  (129) 
50432

>  <name>  (129) 
FQFPNYDICQACSX-ZDUSSCGKSA-N

>  <fragmenstein_runtime>  (129) 
[6.737457036972046]

>  <csv_name>  (129) 
RdRp_knitwork_thumb_site_2_impure_split4000_batch000.csv

>  <inchikey>  (129) 
FQFPNYDICQACSX-ZDUSSCGKSA-N

>  <original SMILES>  (129) 
CC(C)[C@H](NC(=O)c1ccc2[nH]cnc2c1)C(=O)N(C)C

>  <scratch_subdir>  (129) 
['/opt/xchem-fragalysis-2/maxwin/BulkDock/SCRATCH/211013/C2428-P22']

>  <tags>  (129) 
['Fragmenstein placed']

>  <distance_score>  (129) 
0.901197

>  <original ID>  (129) 
FQFPNYDICQACSX-ZDUSSCGKSA-N

>  <ref_mols>  (129) 
d0248a,d0693a

>  <SLURM_JOB_ID>  (129) 
211013

>  <ref_pdb>  (129) 
d0248a

$$$$
51151
     RDKit          3D

 13 13  0  0  0  0  0  0  0  0999 V2000
  -15.4062  -70.2297  -21.2706 C   0  0  0  0  0  0  0  0  0  0  0  0
  -14.1364  -71.0236  -21.0188 C   0  0  0  0  0  0  0  0  0  0  0  0
  -13.1056  -70.2089  -19.7956 S   0  0  0  0  0  0  0  0  0  0  0  0
  -12.9757  -68.8043  -20.1119 O   0  0  0  0  0  0  0  0  0  0  0  0
  -13.6599  -70.5968  -18.5140 O   0  0  0  0  0  0  0  0  0  0  0  0
  -11.5863  -70.9819  -20.0273 N   0  0  0  0  0  0  0  0  0  0  0  0
  -10.5769  -70.8829  -18.9354 C   0  0  0  0  0  0  0  0  0  0  0  0
  -11.0151  -70.9148  -21.3538 C   0  0  0  0  0  0  0  0  0  0  0  0
  -10.0489  -71.8379  -21.7371 C   0  0  0  0  0  0  0  0  0  0  0  0
   -9.6021  -71.8545  -23.0545 C   0  0  0  0  0  0  0  0  0  0  0  0
  -10.1177  -70.9301  -23.9452 C   0  0  0  0  0  0  0  0  0  0  0  0
  -11.0213  -70.0024  -23.6028 N   0  0  0  0  0  0  0  0  0  0  0  0
  -11.4312  -70.0121  -22.3227 C   0  0  0  0  0  0  0  0  0  0  0  0
  1  2  1  0
  2  3  1  0
  3  4  2  0
  3  5  2  0
  3  6  1  0
  6  7  1  0
  6  8  1  0
  8  9  2  0
  9 10  1  0
 10 11  2  0
 11 12  1  0
 12 13  2  0
 13  8  1  0
M  END
>  <SLURM_JOB_NAME>  (130) 
BulkDock.place:Flavi_NS5_RdRp:RdRp_knitwork_thumb_site_2_impure_split4000_batch000

>  <fragmenstein_error>  (130) 
['']

>  <HIPPO Compound ID>  (130) 
1345

>  <alias>  (130) 
None

>  <energy_score>  (130) 
-34.33625

>  <exports>  (130) 
['/opt/xchem-fragalysis-2/maxwin/BulkDock/OUTPUTS/RdRp_knitwork_thumb_site_2_impure_split4000_batch000_211013.sdf']

>  <fragmenstein_outcome>  (130) 
['acceptable']

>  <fragmenstein_mode>  (130) 
['expansion']

>  <HIPPO Pose ID>  (130) 
51151

>  <name>  (130) 
KUNYWHXFLWUFPB-UHFFFAOYSA-N

>  <fragmenstein_runtime>  (130) 
[1.338061809539795]

>  <csv_name>  (130) 
RdRp_knitwork_thumb_site_2_impure_split4000_batch000.csv

>  <inchikey>  (130) 
KUNYWHXFLWUFPB-UHFFFAOYSA-N

>  <original SMILES>  (130) 
CCS(=O)(=O)N(C)c1cccnc1

>  <scratch_subdir>  (130) 
['/opt/xchem-fragalysis-2/maxwin/BulkDock/SCRATCH/211013/C1345-P17']

>  <tags>  (130) 
['Fragmenstein placed']

>  <distance_score>  (130) 
0.638958

>  <original ID>  (130) 
KUNYWHXFLWUFPB-UHFFFAOYSA-N

>  <ref_mols>  (130) 
d0174a,d0279a,d0615a

>  <SLURM_JOB_ID>  (130) 
211013

>  <ref_pdb>  (130) 
d0174a

$$$$
51152
     RDKit          3D

 13 13  0  0  0  0  0  0  0  0999 V2000
  -14.5759  -69.6688  -22.7810 C   0  0  0  0  0  0  0  0  0  0  0  0
  -15.0771  -69.8523  -21.3664 C   0  0  0  0  0  0  0  0  0  0  0  0
  -13.7993  -69.8184  -20.1160 S   0  0  0  0  0  0  0  0  0  0  0  0
  -13.0305  -68.6070  -20.2749 O   0  0  0  0  0  0  0  0  0  0  0  0
  -14.4508  -70.1186  -18.8525 O   0  0  0  0  0  0  0  0  0  0  0  0
  -12.8133  -71.1384  -20.5593 N   0  0  0  0  0  0  0  0  0  0  0  0
  -11.6308  -70.8114  -21.3961 C   0  0  0  0  0  0  0  0  0  0  0  0
  -12.5399  -72.0838  -19.5067 C   0  0  0  0  0  0  0  0  0  0  0  0
  -12.8509  -73.4241  -19.7137 C   0  0  0  0  0  0  0  0  0  0  0  0
  -12.5395  -74.3574  -18.7273 C   0  0  0  0  0  0  0  0  0  0  0  0
  -11.9104  -73.9153  -17.5728 C   0  0  0  0  0  0  0  0  0  0  0  0
  -11.5756  -72.6250  -17.3453 N   0  0  0  0  0  0  0  0  0  0  0  0
  -11.8821  -71.7400  -18.3253 C   0  0  0  0  0  0  0  0  0  0  0  0
  1  2  1  0
  2  3  1  0
  3  4  2  0
  3  5  2  0
  3  6  1  0
  6  7  1  0
  6  8  1  0
  8  9  2  0
  9 10  1  0
 10 11  2  0
 11 12  1  0
 12 13  2  0
 13  8  1  0
M  END
>  <SLURM_JOB_NAME>  (131) 
BulkDock.place:Flavi_NS5_RdRp:RdRp_knitwork_thumb_site_2_impure_split4000_batch000

>  <fragmenstein_error>  (131) 
['']

>  <HIPPO Compound ID>  (131) 
1345

>  <alias>  (131) 
None

>  <energy_score>  (131) 
-34.412373

>  <exports>  (131) 
['/opt/xchem-fragalysis-2/maxwin/BulkDock/OUTPUTS/RdRp_knitwork_thumb_site_2_impure_split4000_batch000_211013.sdf']

>  <fragmenstein_outcome>  (131) 
['acceptable']

>  <fragmenstein_mode>  (131) 
['expansion']

>  <HIPPO Pose ID>  (131) 
51152

>  <name>  (131) 
KUNYWHXFLWUFPB-UHFFFAOYSA-N

>  <fragmenstein_runtime>  (131) 
[1.3825297355651855]

>  <csv_name>  (131) 
RdRp_knitwork_thumb_site_2_impure_split4000_batch000.csv

>  <inchikey>  (131) 
KUNYWHXFLWUFPB-UHFFFAOYSA-N

>  <original SMILES>  (131) 
CCS(=O)(=O)N(C)c1cccnc1

>  <scratch_subdir>  (131) 
['/opt/xchem-fragalysis-2/maxwin/BulkDock/SCRATCH/211013/C1345-P29']

>  <tags>  (131) 
['Fragmenstein placed']

>  <distance_score>  (131) 
0.669055

>  <original ID>  (131) 
KUNYWHXFLWUFPB-UHFFFAOYSA-N

>  <ref_mols>  (131) 
d0174a,d0279a

>  <SLURM_JOB_ID>  (131) 
211013

>  <ref_pdb>  (131) 
d0279a

$$$$
51474
     RDKit          3D

 13 13  0  0  0  0  0  0  0  0999 V2000
  -14.1031  -69.3132  -23.0143 C   0  0  0  0  0  0  0  0  0  0  0  0
  -14.5954  -69.5276  -21.5789 C   0  0  0  0  0  0  0  0  0  0  0  0
  -15.8938  -70.3387  -21.5905 C   0  0  0  0  0  0  0  0  0  0  0  0
  -14.8783  -68.1604  -20.9588 C   0  0  0  0  0  0  0  0  0  0  0  0
  -13.6136  -70.1207  -20.7043 O   0  0  0  0  0  0  0  0  0  0  0  0
  -13.0315  -71.3534  -21.1409 C   0  0  0  0  0  0  0  0  0  0  0  0
  -11.5369  -71.2576  -21.5135 C   0  0  1  0  0  0  0  0  0  0  0  0
  -11.2934  -70.2268  -22.4782 O   0  0  0  0  0  0  0  0  0  0  0  0
  -10.5534  -71.1582  -20.3789 C   0  0  0  0  0  0  0  0  0  0  0  0
  -10.7334  -71.4391  -19.0379 C   0  0  0  0  0  0  0  0  0  0  0  0
   -9.2419  -71.3198  -18.1991 S   0  0  0  0  0  0  0  0  0  0  0  0
   -8.4724  -70.8627  -19.6632 C   0  0  0  0  0  0  0  0  0  0  0  0
   -9.2465  -70.8041  -20.7233 N   0  0  0  0  0  0  0  0  0  0  0  0
  1  2  1  0
  2  3  1  0
  2  4  1  0
  2  5  1  0
  5  6  1  0
  6  7  1  0
  7  8  1  6
  7  9  1  0
  9 10  2  0
 10 11  1  0
 11 12  1  0
 12 13  2  0
 13  9  1  0
M  END
>  <SLURM_JOB_NAME>  (132) 
BulkDock.place:Flavi_NS5_RdRp:RdRp_knitwork_thumb_site_2_impure_split4000_batch000

>  <fragmenstein_error>  (132) 
['']

>  <HIPPO Compound ID>  (132) 
5550

>  <alias>  (132) 
None

>  <energy_score>  (132) 
-99.198655

>  <exports>  (132) 
['/opt/xchem-fragalysis-2/maxwin/BulkDock/OUTPUTS/RdRp_knitwork_thumb_site_2_impure_split4000_batch000_211013.sdf']

>  <fragmenstein_outcome>  (132) 
['acceptable']

>  <fragmenstein_mode>  (132) 
['expansion']

>  <HIPPO Pose ID>  (132) 
51474

>  <name>  (132) 
CVLSHSMLHFDUPS-MRVPVSSYSA-N

>  <fragmenstein_runtime>  (132) 
[1.9659786224365234]

>  <csv_name>  (132) 
RdRp_knitwork_thumb_site_2_impure_split4000_batch000.csv

>  <inchikey>  (132) 
CVLSHSMLHFDUPS-MRVPVSSYSA-N

>  <original SMILES>  (132) 
CC(C)(C)OC[C@@H](O)c1cscn1

>  <scratch_subdir>  (132) 
['/opt/xchem-fragalysis-2/maxwin/BulkDock/SCRATCH/211013/C5550-P17']

>  <tags>  (132) 
['Fragmenstein placed']

>  <distance_score>  (132) 
0.64163

>  <original ID>  (132) 
CVLSHSMLHFDUPS-MRVPVSSYSA-N

>  <ref_mols>  (132) 
d0174a,d0615a

>  <SLURM_JOB_ID>  (132) 
211013

>  <ref_pdb>  (132) 
d0174a

$$$$
51476
     RDKit          3D

 13 13  0  0  0  0  0  0  0  0999 V2000
  -14.2076  -69.2848  -23.0115 C   0  0  0  0  0  0  0  0  0  0  0  0
  -14.6568  -69.4771  -21.5595 C   0  0  0  0  0  0  0  0  0  0  0  0
  -15.9088  -70.3520  -21.5026 C   0  0  0  0  0  0  0  0  0  0  0  0
  -15.0240  -68.1140  -20.9696 C   0  0  0  0  0  0  0  0  0  0  0  0
  -13.6130  -69.9988  -20.7083 O   0  0  0  0  0  0  0  0  0  0  0  0
  -13.0496  -71.2560  -21.1030 C   0  0  0  0  0  0  0  0  0  0  0  0
  -11.5560  -71.1994  -21.4813 C   0  0  1  0  0  0  0  0  0  0  0  0
  -11.2924  -70.1899  -22.4622 O   0  0  0  0  0  0  0  0  0  0  0  0
  -10.5632  -71.1088  -20.3540 C   0  0  0  0  0  0  0  0  0  0  0  0
  -10.7403  -71.3717  -19.0090 C   0  0  0  0  0  0  0  0  0  0  0  0
   -9.2401  -71.2830  -18.1821 S   0  0  0  0  0  0  0  0  0  0  0  0
   -8.4713  -70.8518  -19.6541 C   0  0  0  0  0  0  0  0  0  0  0  0
   -9.2501  -70.7897  -20.7104 N   0  0  0  0  0  0  0  0  0  0  0  0
  1  2  1  0
  2  3  1  0
  2  4  1  0
  2  5  1  0
  5  6  1  0
  6  7  1  0
  7  8  1  6
  7  9  1  0
  9 10  2  0
 10 11  1  0
 11 12  1  0
 12 13  2  0
 13  9  1  0
M  END
>  <SLURM_JOB_NAME>  (133) 
BulkDock.place:Flavi_NS5_RdRp:RdRp_knitwork_thumb_site_2_impure_split4000_batch000

>  <fragmenstein_error>  (133) 
['']

>  <HIPPO Compound ID>  (133) 
5550

>  <alias>  (133) 
None

>  <energy_score>  (133) 
-99.56737

>  <exports>  (133) 
['/opt/xchem-fragalysis-2/maxwin/BulkDock/OUTPUTS/RdRp_knitwork_thumb_site_2_impure_split4000_batch000_211013.sdf']

>  <fragmenstein_outcome>  (133) 
['acceptable']

>  <fragmenstein_mode>  (133) 
['expansion']

>  <HIPPO Pose ID>  (133) 
51476

>  <name>  (133) 
CVLSHSMLHFDUPS-MRVPVSSYSA-N

>  <fragmenstein_runtime>  (133) 
[2.154937505722046]

>  <csv_name>  (133) 
RdRp_knitwork_thumb_site_2_impure_split4000_batch000.csv

>  <inchikey>  (133) 
CVLSHSMLHFDUPS-MRVPVSSYSA-N

>  <original SMILES>  (133) 
CC(C)(C)OC[C@@H](O)c1cscn1

>  <scratch_subdir>  (133) 
['/opt/xchem-fragalysis-2/maxwin/BulkDock/SCRATCH/211013/C5550-P50']

>  <tags>  (133) 
['Fragmenstein placed']

>  <distance_score>  (133) 
0.615688

>  <original ID>  (133) 
CVLSHSMLHFDUPS-MRVPVSSYSA-N

>  <ref_mols>  (133) 
d0174a,d0615a

>  <SLURM_JOB_ID>  (133) 
211013

>  <ref_pdb>  (133) 
d0615a

$$$$
51480
     RDKit          3D

 16 16  0  0  0  0  0  0  0  0999 V2000
  -15.8542  -70.4671  -25.0638 C   0  0  0  0  0  0  0  0  0  0  0  0
  -15.7353  -69.6636  -23.9983 C   0  0  0  0  0  0  0  0  0  0  0  0
  -14.5800  -69.6640  -23.0395 C   0  0  0  0  0  0  0  0  0  0  0  0
  -15.0365  -69.6854  -21.6357 N   0  0  0  0  0  0  0  0  0  0  0  0
  -16.1930  -70.5392  -21.3677 C   0  0  0  0  0  0  0  0  0  0  0  0
  -13.8073  -69.7762  -20.4628 S   0  0  0  0  0  0  0  0  0  0  0  0
  -14.4161  -70.0009  -19.1679 O   0  0  0  0  0  0  0  0  0  0  0  0
  -12.8729  -68.7089  -20.6839 O   0  0  0  0  0  0  0  0  0  0  0  0
  -13.1168  -71.2396  -20.8892 N   0  0  0  0  0  0  0  0  0  0  0  0
  -11.7017  -71.2945  -21.3671 C   0  0  1  0  0  0  0  0  0  0  0  0
  -11.4332  -70.5440  -22.6584 C   0  0  0  0  0  0  0  0  0  0  0  0
  -10.7379  -71.0904  -20.2204 C   0  0  0  0  0  0  0  0  0  0  0  0
  -11.0223  -71.4456  -18.9783 N   0  0  0  0  0  0  0  0  0  0  0  0
   -9.8866  -71.3625  -18.1972 C   0  0  0  0  0  0  0  0  0  0  0  0
   -8.7450  -70.9565  -18.8492 C   0  0  0  0  0  0  0  0  0  0  0  0
   -9.1040  -70.6141  -20.4828 S   0  0  0  0  0  0  0  0  0  0  0  0
  1  2  2  0
  2  3  1  0
  3  4  1  0
  4  5  1  0
  4  6  1  0
  6  7  2  0
  6  8  2  0
  6  9  1  0
  9 10  1  0
 10 11  1  6
 10 12  1  0
 12 13  2  0
 13 14  1  0
 14 15  2  0
 15 16  1  0
 16 12  1  0
M  END
>  <SLURM_JOB_NAME>  (134) 
BulkDock.place:Flavi_NS5_RdRp:RdRp_knitwork_thumb_site_2_impure_split4000_batch000

>  <fragmenstein_error>  (134) 
['']

>  <HIPPO Compound ID>  (134) 
5555

>  <alias>  (134) 
None

>  <energy_score>  (134) 
-140.414712

>  <exports>  (134) 
['/opt/xchem-fragalysis-2/maxwin/BulkDock/OUTPUTS/RdRp_knitwork_thumb_site_2_impure_split4000_batch000_211013.sdf']

>  <fragmenstein_outcome>  (134) 
['acceptable']

>  <fragmenstein_mode>  (134) 
['expansion']

>  <HIPPO Pose ID>  (134) 
51480

>  <name>  (134) 
MJOVEFYRMHTGAB-QMMMGPOBSA-N

>  <fragmenstein_runtime>  (134) 
[2.9292051792144775]

>  <csv_name>  (134) 
RdRp_knitwork_thumb_site_2_impure_split4000_batch000.csv

>  <inchikey>  (134) 
MJOVEFYRMHTGAB-QMMMGPOBSA-N

>  <original SMILES>  (134) 
C=CCN(C)S(=O)(=O)N[C@@H](C)c1nccs1

>  <scratch_subdir>  (134) 
['/opt/xchem-fragalysis-2/maxwin/BulkDock/SCRATCH/211013/C5555-P17']

>  <tags>  (134) 
['Fragmenstein placed']

>  <distance_score>  (134) 
0.817368

>  <original ID>  (134) 
MJOVEFYRMHTGAB-QMMMGPOBSA-N

>  <ref_mols>  (134) 
d0174a,d0615a

>  <SLURM_JOB_ID>  (134) 
211013

>  <ref_pdb>  (134) 
d0174a

$$$$
51484
     RDKit          3D

 16 16  0  0  0  0  0  0  0  0999 V2000
  -14.1525  -70.0310  -24.9659 C   0  0  0  0  0  0  0  0  0  0  0  0
  -14.8747  -69.9433  -23.8398 C   0  0  0  0  0  0  0  0  0  0  0  0
  -14.5937  -68.9771  -22.7177 C   0  0  0  0  0  0  0  0  0  0  0  0
  -14.8709  -69.5756  -21.4142 N   0  0  0  0  0  0  0  0  0  0  0  0
  -16.2018  -70.1099  -21.1937 C   0  0  0  0  0  0  0  0  0  0  0  0
  -13.6952  -69.8061  -20.2659 S   0  0  0  0  0  0  0  0  0  0  0  0
  -14.3330  -70.0874  -18.9965 O   0  0  0  0  0  0  0  0  0  0  0  0
  -12.6937  -68.7857  -20.4001 O   0  0  0  0  0  0  0  0  0  0  0  0
  -13.0950  -71.2763  -20.7710 N   0  0  0  0  0  0  0  0  0  0  0  0
  -11.7180  -71.3642  -21.3253 C   0  0  1  0  0  0  0  0  0  0  0  0
  -11.5287  -70.6136  -22.6233 C   0  0  0  0  0  0  0  0  0  0  0  0
  -10.6860  -71.1612  -20.2389 C   0  0  0  0  0  0  0  0  0  0  0  0
  -10.8651  -71.5915  -19.0005 N   0  0  0  0  0  0  0  0  0  0  0  0
   -9.6964  -71.4430  -18.2814 C   0  0  0  0  0  0  0  0  0  0  0  0
   -8.6351  -70.9088  -18.9758 C   0  0  0  0  0  0  0  0  0  0  0  0
   -9.1190  -70.5305  -20.5697 S   0  0  0  0  0  0  0  0  0  0  0  0
  1  2  2  0
  2  3  1  0
  3  4  1  0
  4  5  1  0
  4  6  1  0
  6  7  2  0
  6  8  2  0
  6  9  1  0
  9 10  1  0
 10 11  1  6
 10 12  1  0
 12 13  2  0
 13 14  1  0
 14 15  2  0
 15 16  1  0
 16 12  1  0
M  END
>  <SLURM_JOB_NAME>  (135) 
BulkDock.place:Flavi_NS5_RdRp:RdRp_knitwork_thumb_site_2_impure_split4000_batch000

>  <fragmenstein_error>  (135) 
['']

>  <HIPPO Compound ID>  (135) 
5555

>  <alias>  (135) 
None

>  <energy_score>  (135) 
-140.681179

>  <exports>  (135) 
['/opt/xchem-fragalysis-2/maxwin/BulkDock/OUTPUTS/RdRp_knitwork_thumb_site_2_impure_split4000_batch000_211013.sdf']

>  <fragmenstein_outcome>  (135) 
['acceptable']

>  <fragmenstein_mode>  (135) 
['expansion']

>  <HIPPO Pose ID>  (135) 
51484

>  <name>  (135) 
MJOVEFYRMHTGAB-QMMMGPOBSA-N

>  <fragmenstein_runtime>  (135) 
[2.914698362350464]

>  <csv_name>  (135) 
RdRp_knitwork_thumb_site_2_impure_split4000_batch000.csv

>  <inchikey>  (135) 
MJOVEFYRMHTGAB-QMMMGPOBSA-N

>  <original SMILES>  (135) 
C=CCN(C)S(=O)(=O)N[C@@H](C)c1nccs1

>  <scratch_subdir>  (135) 
['/opt/xchem-fragalysis-2/maxwin/BulkDock/SCRATCH/211013/C5555-P50']

>  <tags>  (135) 
['Fragmenstein placed']

>  <distance_score>  (135) 
0.839828

>  <original ID>  (135) 
MJOVEFYRMHTGAB-QMMMGPOBSA-N

>  <ref_mols>  (135) 
d0174a,d0615a

>  <SLURM_JOB_ID>  (135) 
211013

>  <ref_pdb>  (135) 
d0615a

$$$$
51487
     RDKit          3D

 15 15  0  0  0  0  0  0  0  0999 V2000
  -14.1031  -69.1460  -23.6250 C   0  0  0  0  0  0  0  0  0  0  0  0
  -14.7053  -69.9084  -22.7066 C   0  0  0  0  0  0  0  0  0  0  0  0
  -15.1484  -69.4342  -21.3528 C   0  0  0  0  0  0  0  0  0  0  0  0
  -13.8693  -69.6941  -20.1007 S   0  0  0  0  0  0  0  0  0  0  0  0
  -13.0078  -68.5367  -20.0651 O   0  0  0  0  0  0  0  0  0  0  0  0
  -14.5015  -70.1715  -18.8846 O   0  0  0  0  0  0  0  0  0  0  0  0
  -12.9754  -70.9902  -20.6724 N   0  0  0  0  0  0  0  0  0  0  0  0
  -11.6839  -70.6517  -21.3427 C   0  0  2  0  0  0  0  0  0  0  0  0
  -11.5418  -71.5611  -22.5706 C   0  0  0  0  0  0  0  0  0  0  0  0
  -10.6431  -70.9809  -23.6537 C   0  0  0  0  0  0  0  0  0  0  0  0
  -10.5836  -70.9208  -20.3353 C   0  0  0  0  0  0  0  0  0  0  0  0
  -10.7366  -71.6928  -19.2706 N   0  0  0  0  0  0  0  0  0  0  0  0
   -9.5392  -71.7878  -18.5897 C   0  0  0  0  0  0  0  0  0  0  0  0
   -8.4869  -71.0913  -19.1398 C   0  0  0  0  0  0  0  0  0  0  0  0
   -9.0077  -70.2750  -20.5485 S   0  0  0  0  0  0  0  0  0  0  0  0
  1  2  2  0
  2  3  1  0
  3  4  1  0
  4  5  2  0
  4  6  2  0
  4  7  1  0
  7  8  1  0
  8  9  1  6
  9 10  1  0
  8 11  1  0
 11 12  2  0
 12 13  1  0
 13 14  2  0
 14 15  1  0
 15 11  1  0
M  END
>  <SLURM_JOB_NAME>  (136) 
BulkDock.place:Flavi_NS5_RdRp:RdRp_knitwork_thumb_site_2_impure_split4000_batch000

>  <fragmenstein_error>  (136) 
['']

>  <HIPPO Compound ID>  (136) 
5561

>  <alias>  (136) 
None

>  <energy_score>  (136) 
-72.520975

>  <exports>  (136) 
['/opt/xchem-fragalysis-2/maxwin/BulkDock/OUTPUTS/RdRp_knitwork_thumb_site_2_impure_split4000_batch000_211013.sdf']

>  <fragmenstein_outcome>  (136) 
['acceptable']

>  <fragmenstein_mode>  (136) 
['expansion']

>  <HIPPO Pose ID>  (136) 
51487

>  <name>  (136) 
LXYBXKRRADMCFP-MRVPVSSYSA-N

>  <fragmenstein_runtime>  (136) 
[1.9662935733795166]

>  <csv_name>  (136) 
RdRp_knitwork_thumb_site_2_impure_split4000_batch000.csv

>  <inchikey>  (136) 
LXYBXKRRADMCFP-MRVPVSSYSA-N

>  <original SMILES>  (136) 
C=CCS(=O)(=O)N[C@H](CC)c1nccs1

>  <scratch_subdir>  (136) 
['/opt/xchem-fragalysis-2/maxwin/BulkDock/SCRATCH/211013/C5561-P17']

>  <tags>  (136) 
['Fragmenstein placed']

>  <distance_score>  (136) 
0.760792

>  <original ID>  (136) 
LXYBXKRRADMCFP-MRVPVSSYSA-N

>  <ref_mols>  (136) 
d0174a,d0615a

>  <SLURM_JOB_ID>  (136) 
211013

>  <ref_pdb>  (136) 
d0174a

$$$$
51488
     RDKit          3D

 15 15  0  0  0  0  0  0  0  0999 V2000
  -14.1142  -69.3786  -23.8823 C   0  0  0  0  0  0  0  0  0  0  0  0
  -14.6346  -69.5066  -22.6673 C   0  0  0  0  0  0  0  0  0  0  0  0
  -15.2174  -69.6499  -21.3068 C   0  0  0  0  0  0  0  0  0  0  0  0
  -13.8985  -69.7514  -20.0701 S   0  0  0  0  0  0  0  0  0  0  0  0
  -13.1101  -68.5438  -20.0867 O   0  0  0  0  0  0  0  0  0  0  0  0
  -14.4661  -70.2383  -18.8264 O   0  0  0  0  0  0  0  0  0  0  0  0
  -12.9538  -71.0135  -20.6387 N   0  0  0  0  0  0  0  0  0  0  0  0
  -11.6930  -70.6394  -21.3433 C   0  0  2  0  0  0  0  0  0  0  0  0
  -11.5764  -71.5478  -22.5742 C   0  0  0  0  0  0  0  0  0  0  0  0
  -10.6054  -71.0396  -23.6297 C   0  0  0  0  0  0  0  0  0  0  0  0
  -10.5626  -70.8917  -20.3654 C   0  0  0  0  0  0  0  0  0  0  0  0
  -10.6630  -71.7072  -19.3264 N   0  0  0  0  0  0  0  0  0  0  0  0
   -9.4542  -71.7640  -18.6622 C   0  0  0  0  0  0  0  0  0  0  0  0
   -8.4459  -70.9954  -19.1986 C   0  0  0  0  0  0  0  0  0  0  0  0
   -9.0272  -70.1538  -20.5683 S   0  0  0  0  0  0  0  0  0  0  0  0
  1  2  2  0
  2  3  1  0
  3  4  1  0
  4  5  2  0
  4  6  2  0
  4  7  1  0
  7  8  1  0
  8  9  1  6
  9 10  1  0
  8 11  1  0
 11 12  2  0
 12 13  1  0
 13 14  2  0
 14 15  1  0
 15 11  1  0
M  END
>  <SLURM_JOB_NAME>  (137) 
BulkDock.place:Flavi_NS5_RdRp:RdRp_knitwork_thumb_site_2_impure_split4000_batch000

>  <fragmenstein_error>  (137) 
['']

>  <HIPPO Compound ID>  (137) 
5561

>  <alias>  (137) 
None

>  <energy_score>  (137) 
-20.93307

>  <exports>  (137) 
['/opt/xchem-fragalysis-2/maxwin/BulkDock/OUTPUTS/RdRp_knitwork_thumb_site_2_impure_split4000_batch000_211013.sdf']

>  <fragmenstein_outcome>  (137) 
['acceptable']

>  <fragmenstein_mode>  (137) 
['expansion']

>  <HIPPO Pose ID>  (137) 
51488

>  <name>  (137) 
LXYBXKRRADMCFP-MRVPVSSYSA-N

>  <fragmenstein_runtime>  (137) 
[2.228308916091919]

>  <csv_name>  (137) 
RdRp_knitwork_thumb_site_2_impure_split4000_batch000.csv

>  <inchikey>  (137) 
LXYBXKRRADMCFP-MRVPVSSYSA-N

>  <original SMILES>  (137) 
C=CCS(=O)(=O)N[C@H](CC)c1nccs1

>  <scratch_subdir>  (137) 
['/opt/xchem-fragalysis-2/maxwin/BulkDock/SCRATCH/211013/C5561-P50']

>  <tags>  (137) 
['Fragmenstein placed']

>  <distance_score>  (137) 
0.769334

>  <original ID>  (137) 
LXYBXKRRADMCFP-MRVPVSSYSA-N

>  <ref_mols>  (137) 
d0174a,d0615a

>  <SLURM_JOB_ID>  (137) 
211013

>  <ref_pdb>  (137) 
d0615a

$$$$
51491
     RDKit          3D

 17 17  0  0  0  0  0  0  0  0999 V2000
  -11.2979  -71.7251  -22.3830 C   0  0  0  0  0  0  0  0  0  0  0  0
  -11.5343  -70.7651  -21.2227 C   0  0  1  0  0  0  0  0  0  0  0  0
  -12.8738  -71.0664  -20.6512 N   0  0  0  0  0  0  0  0  0  0  0  0
  -13.8180  -69.7655  -20.1925 S   0  0  0  0  0  0  0  0  0  0  0  0
  -13.0204  -68.5676  -20.2672 O   0  0  0  0  0  0  0  0  0  0  0  0
  -14.4483  -70.1645  -18.9488 O   0  0  0  0  0  0  0  0  0  0  0  0
  -15.0831  -69.6976  -21.4648 C   0  0  0  0  0  0  0  0  0  0  0  0
  -14.6387  -70.0650  -22.8804 C   0  0  0  0  0  0  0  0  0  0  0  0
  -13.6820  -69.0589  -23.5197 C   0  0  0  0  0  0  0  0  0  0  0  0
  -13.0749  -69.5014  -24.8570 C   0  0  0  0  0  0  0  0  0  0  0  0
  -14.0746  -69.8549  -25.8687 C   0  0  0  0  0  0  0  0  0  0  0  0
  -14.8746  -70.1187  -26.6659 N   0  0  0  0  0  0  0  0  0  0  0  0
  -10.4882  -70.9767  -20.1601 C   0  0  0  0  0  0  0  0  0  0  0  0
  -10.6927  -71.6290  -19.0295 N   0  0  0  0  0  0  0  0  0  0  0  0
   -9.5046  -71.7154  -18.3307 C   0  0  0  0  0  0  0  0  0  0  0  0
   -8.4125  -71.1343  -18.9368 C   0  0  0  0  0  0  0  0  0  0  0  0
   -8.8770  -70.4410  -20.4294 S   0  0  0  0  0  0  0  0  0  0  0  0
  2  1  1  6
  2  3  1  0
  3  4  1  0
  4  5  2  0
  4  6  2  0
  4  7  1  0
  7  8  1  0
  8  9  1  0
  9 10  1  0
 10 11  1  0
 11 12  3  0
  2 13  1  0
 13 14  2  0
 14 15  1  0
 15 16  2  0
 16 17  1  0
 17 13  1  0
M  END
>  <SLURM_JOB_NAME>  (138) 
BulkDock.place:Flavi_NS5_RdRp:RdRp_knitwork_thumb_site_2_impure_split4000_batch000

>  <fragmenstein_error>  (138) 
['']

>  <HIPPO Compound ID>  (138) 
5616

>  <alias>  (138) 
None

>  <energy_score>  (138) 
-95.298902

>  <exports>  (138) 
['/opt/xchem-fragalysis-2/maxwin/BulkDock/OUTPUTS/RdRp_knitwork_thumb_site_2_impure_split4000_batch000_211013.sdf']

>  <fragmenstein_outcome>  (138) 
['acceptable']

>  <fragmenstein_mode>  (138) 
['expansion']

>  <HIPPO Pose ID>  (138) 
51491

>  <name>  (138) 
YZHIZPSEYPALKB-SECBINFHSA-N

>  <fragmenstein_runtime>  (138) 
[1.8215610980987549]

>  <csv_name>  (138) 
RdRp_knitwork_thumb_site_2_impure_split4000_batch000.csv

>  <inchikey>  (138) 
YZHIZPSEYPALKB-SECBINFHSA-N

>  <original SMILES>  (138) 
C[C@@H](NS(=O)(=O)CCCCC#N)c1nccs1

>  <scratch_subdir>  (138) 
['/opt/xchem-fragalysis-2/maxwin/BulkDock/SCRATCH/211013/C5616-P17']

>  <tags>  (138) 
['Fragmenstein placed']

>  <distance_score>  (138) 
0.698929

>  <original ID>  (138) 
YZHIZPSEYPALKB-SECBINFHSA-N

>  <ref_mols>  (138) 
d0174a,d0615a

>  <SLURM_JOB_ID>  (138) 
211013

>  <ref_pdb>  (138) 
d0174a

$$$$
51494
     RDKit          3D

 17 17  0  0  0  0  0  0  0  0999 V2000
  -11.3088  -71.2639  -22.8247 C   0  0  0  0  0  0  0  0  0  0  0  0
  -11.5679  -70.5006  -21.5328 C   0  0  1  0  0  0  0  0  0  0  0  0
  -12.9226  -70.8547  -21.0274 N   0  0  0  0  0  0  0  0  0  0  0  0
  -13.7030  -69.6441  -20.1695 S   0  0  0  0  0  0  0  0  0  0  0  0
  -12.7248  -68.6521  -19.8012 O   0  0  0  0  0  0  0  0  0  0  0  0
  -14.5012  -70.3097  -19.1620 O   0  0  0  0  0  0  0  0  0  0  0  0
  -14.7831  -68.9048  -21.3801 C   0  0  0  0  0  0  0  0  0  0  0  0
  -15.5735  -69.8763  -22.2360 C   0  0  0  0  0  0  0  0  0  0  0  0
  -14.9065  -70.1891  -23.5793 C   0  0  0  0  0  0  0  0  0  0  0  0
  -15.8504  -70.8742  -24.5668 C   0  0  0  0  0  0  0  0  0  0  0  0
  -16.9725  -69.9959  -24.9160 C   0  0  0  0  0  0  0  0  0  0  0  0
  -17.8418  -69.2513  -25.1133 N   0  0  0  0  0  0  0  0  0  0  0  0
  -10.5502  -70.8745  -20.4814 C   0  0  0  0  0  0  0  0  0  0  0  0
  -10.7784  -71.7165  -19.4877 N   0  0  0  0  0  0  0  0  0  0  0  0
   -9.6335  -71.8491  -18.7248 C   0  0  0  0  0  0  0  0  0  0  0  0
   -8.5438  -71.1252  -19.1558 C   0  0  0  0  0  0  0  0  0  0  0  0
   -8.9561  -70.2382  -20.5585 S   0  0  0  0  0  0  0  0  0  0  0  0
  2  1  1  6
  2  3  1  0
  3  4  1  0
  4  5  2  0
  4  6  2  0
  4  7  1  0
  7  8  1  0
  8  9  1  0
  9 10  1  0
 10 11  1  0
 11 12  3  0
  2 13  1  0
 13 14  2  0
 14 15  1  0
 15 16  2  0
 16 17  1  0
 17 13  1  0
M  END
>  <SLURM_JOB_NAME>  (139) 
BulkDock.place:Flavi_NS5_RdRp:RdRp_knitwork_thumb_site_2_impure_split4000_batch000

>  <fragmenstein_error>  (139) 
['']

>  <HIPPO Compound ID>  (139) 
5616

>  <alias>  (139) 
None

>  <energy_score>  (139) 
-96.599757

>  <exports>  (139) 
['/opt/xchem-fragalysis-2/maxwin/BulkDock/OUTPUTS/RdRp_knitwork_thumb_site_2_impure_split4000_batch000_211013.sdf']

>  <fragmenstein_outcome>  (139) 
['acceptable']

>  <fragmenstein_mode>  (139) 
['expansion']

>  <HIPPO Pose ID>  (139) 
51494

>  <name>  (139) 
YZHIZPSEYPALKB-SECBINFHSA-N

>  <fragmenstein_runtime>  (139) 
[3.2068111896514893]

>  <csv_name>  (139) 
RdRp_knitwork_thumb_site_2_impure_split4000_batch000.csv

>  <inchikey>  (139) 
YZHIZPSEYPALKB-SECBINFHSA-N

>  <original SMILES>  (139) 
C[C@@H](NS(=O)(=O)CCCCC#N)c1nccs1

>  <scratch_subdir>  (139) 
['/opt/xchem-fragalysis-2/maxwin/BulkDock/SCRATCH/211013/C5616-P50']

>  <tags>  (139) 
['Fragmenstein placed']

>  <distance_score>  (139) 
0.709538

>  <original ID>  (139) 
YZHIZPSEYPALKB-SECBINFHSA-N

>  <ref_mols>  (139) 
d0174a,d0615a

>  <SLURM_JOB_ID>  (139) 
211013

>  <ref_pdb>  (139) 
d0615a

$$$$
51497
     RDKit          3D

 15 15  0  0  0  0  0  0  0  0999 V2000
  -14.5887  -69.5106  -22.7344 C   0  0  0  0  0  0  0  0  0  0  0  0
  -14.7960  -69.3122  -21.2885 N   0  0  0  0  0  0  0  0  0  0  0  0
  -15.1165  -67.8875  -21.0329 C   0  0  0  0  0  0  0  0  0  0  0  0
  -13.6009  -69.8339  -20.2116 S   0  0  0  0  0  0  0  0  0  0  0  0
  -14.2653  -70.1224  -18.9575 O   0  0  0  0  0  0  0  0  0  0  0  0
  -12.5113  -68.8987  -20.2837 O   0  0  0  0  0  0  0  0  0  0  0  0
  -13.1514  -71.2984  -20.8625 N   0  0  0  0  0  0  0  0  0  0  0  0
  -11.7624  -71.4613  -21.4195 C   0  0  0  0  0  0  0  0  0  0  0  0
  -11.6867  -72.9394  -21.8817 C   0  0  0  0  0  0  0  0  0  0  0  0
  -11.5366  -70.5989  -22.6626 C   0  0  0  0  0  0  0  0  0  0  0  0
  -10.7320  -71.2857  -20.3069 C   0  0  0  0  0  0  0  0  0  0  0  0
  -10.9442  -71.6871  -19.0638 N   0  0  0  0  0  0  0  0  0  0  0  0
   -9.7938  -71.5295  -18.3172 C   0  0  0  0  0  0  0  0  0  0  0  0
   -8.7115  -71.0145  -18.9932 C   0  0  0  0  0  0  0  0  0  0  0  0
   -9.1469  -70.6779  -20.6096 S   0  0  0  0  0  0  0  0  0  0  0  0
  1  2  1  0
  2  3  1  0
  2  4  1  0
  4  5  2  0
  4  6  2  0
  4  7  1  0
  7  8  1  0
  8  9  1  0
  8 10  1  0
  8 11  1  0
 11 12  2  0
 12 13  1  0
 13 14  2  0
 14 15  1  0
 15 11  1  0
M  END
>  <SLURM_JOB_NAME>  (140) 
BulkDock.place:Flavi_NS5_RdRp:RdRp_knitwork_thumb_site_2_impure_split4000_batch000

>  <fragmenstein_error>  (140) 
['']

>  <HIPPO Compound ID>  (140) 
5628

>  <alias>  (140) 
None

>  <energy_score>  (140) 
-70.527126

>  <exports>  (140) 
['/opt/xchem-fragalysis-2/maxwin/BulkDock/OUTPUTS/RdRp_knitwork_thumb_site_2_impure_split4000_batch000_211013.sdf']

>  <fragmenstein_outcome>  (140) 
['acceptable']

>  <fragmenstein_mode>  (140) 
['expansion']

>  <HIPPO Pose ID>  (140) 
51497

>  <name>  (140) 
HOSPANKXCRCCGC-UHFFFAOYSA-N

>  <fragmenstein_runtime>  (140) 
[4.314105033874512]

>  <csv_name>  (140) 
RdRp_knitwork_thumb_site_2_impure_split4000_batch000.csv

>  <inchikey>  (140) 
HOSPANKXCRCCGC-UHFFFAOYSA-N

>  <original SMILES>  (140) 
CN(C)S(=O)(=O)NC(C)(C)c1nccs1

>  <scratch_subdir>  (140) 
['/opt/xchem-fragalysis-2/maxwin/BulkDock/SCRATCH/211013/C5628-P17']

>  <tags>  (140) 
['Fragmenstein placed']

>  <distance_score>  (140) 
0.958377

>  <original ID>  (140) 
HOSPANKXCRCCGC-UHFFFAOYSA-N

>  <ref_mols>  (140) 
d0174a,d0615a

>  <SLURM_JOB_ID>  (140) 
211013

>  <ref_pdb>  (140) 
d0174a

$$$$
51500
     RDKit          3D

 15 15  0  0  0  0  0  0  0  0999 V2000
  -14.6675  -69.3659  -22.5878 C   0  0  0  0  0  0  0  0  0  0  0  0
  -14.9121  -69.4422  -21.1336 N   0  0  0  0  0  0  0  0  0  0  0  0
  -15.5376  -68.1932  -20.6412 C   0  0  0  0  0  0  0  0  0  0  0  0
  -13.6149  -69.8828  -20.1456 S   0  0  0  0  0  0  0  0  0  0  0  0
  -14.1751  -70.2361  -18.8578 O   0  0  0  0  0  0  0  0  0  0  0  0
  -12.6025  -68.8709  -20.2787 O   0  0  0  0  0  0  0  0  0  0  0  0
  -13.1357  -71.3063  -20.8642 N   0  0  0  0  0  0  0  0  0  0  0  0
  -11.7567  -71.4105  -21.4492 C   0  0  0  0  0  0  0  0  0  0  0  0
  -11.6387  -72.8749  -21.9460 C   0  0  0  0  0  0  0  0  0  0  0  0
  -11.5933  -70.5155  -22.6781 C   0  0  0  0  0  0  0  0  0  0  0  0
  -10.7135  -71.2254  -20.3511 C   0  0  0  0  0  0  0  0  0  0  0  0
  -10.8918  -71.6643  -19.1152 N   0  0  0  0  0  0  0  0  0  0  0  0
   -9.7344  -71.4908  -18.3834 C   0  0  0  0  0  0  0  0  0  0  0  0
   -8.6794  -70.9283  -19.0646 C   0  0  0  0  0  0  0  0  0  0  0  0
   -9.1533  -70.5631  -20.6644 S   0  0  0  0  0  0  0  0  0  0  0  0
  1  2  1  0
  2  3  1  0
  2  4  1  0
  4  5  2  0
  4  6  2  0
  4  7  1  0
  7  8  1  0
  8  9  1  0
  8 10  1  0
  8 11  1  0
 11 12  2  0
 12 13  1  0
 13 14  2  0
 14 15  1  0
 15 11  1  0
M  END
>  <SLURM_JOB_NAME>  (141) 
BulkDock.place:Flavi_NS5_RdRp:RdRp_knitwork_thumb_site_2_impure_split4000_batch000

>  <fragmenstein_error>  (141) 
['']

>  <HIPPO Compound ID>  (141) 
5628

>  <alias>  (141) 
None

>  <energy_score>  (141) 
-72.66688

>  <exports>  (141) 
['/opt/xchem-fragalysis-2/maxwin/BulkDock/OUTPUTS/RdRp_knitwork_thumb_site_2_impure_split4000_batch000_211013.sdf']

>  <fragmenstein_outcome>  (141) 
['acceptable']

>  <fragmenstein_mode>  (141) 
['expansion']

>  <HIPPO Pose ID>  (141) 
51500

>  <name>  (141) 
HOSPANKXCRCCGC-UHFFFAOYSA-N

>  <fragmenstein_runtime>  (141) 
[3.9837896823883057]

>  <csv_name>  (141) 
RdRp_knitwork_thumb_site_2_impure_split4000_batch000.csv

>  <inchikey>  (141) 
HOSPANKXCRCCGC-UHFFFAOYSA-N

>  <original SMILES>  (141) 
CN(C)S(=O)(=O)NC(C)(C)c1nccs1

>  <scratch_subdir>  (141) 
['/opt/xchem-fragalysis-2/maxwin/BulkDock/SCRATCH/211013/C5628-P50']

>  <tags>  (141) 
['Fragmenstein placed']

>  <distance_score>  (141) 
0.931181

>  <original ID>  (141) 
HOSPANKXCRCCGC-UHFFFAOYSA-N

>  <ref_mols>  (141) 
d0174a,d0615a

>  <SLURM_JOB_ID>  (141) 
211013

>  <ref_pdb>  (141) 
d0615a

$$$$
51501
     RDKit          3D

 13 13  0  0  0  0  0  0  0  0999 V2000
  -16.6311  -70.3770  -24.8417 C   0  0  0  0  0  0  0  0  0  0  0  0
  -16.5206  -70.5527  -23.3398 C   0  0  0  0  0  0  0  0  0  0  0  0
  -15.2636  -69.8915  -22.7877 C   0  0  0  0  0  0  0  0  0  0  0  0
  -15.3012  -69.9926  -21.3585 O   0  0  0  0  0  0  0  0  0  0  0  0
  -14.0925  -69.5127  -20.7809 C   0  0  0  0  0  0  0  0  0  0  0  0
  -13.0892  -70.6571  -20.6089 C   0  0  0  0  0  0  0  0  0  0  0  0
  -11.6852  -70.0850  -20.6993 C   0  0  2  0  0  0  0  0  0  0  0  0
  -11.3758  -69.9173  -22.0912 O   0  0  0  0  0  0  0  0  0  0  0  0
  -10.5913  -70.8410  -20.0089 C   0  0  0  0  0  0  0  0  0  0  0  0
  -10.6562  -71.6357  -18.8806 C   0  0  0  0  0  0  0  0  0  0  0  0
   -9.0837  -72.1410  -18.4188 S   0  0  0  0  0  0  0  0  0  0  0  0
   -8.4354  -71.2924  -19.7588 C   0  0  0  0  0  0  0  0  0  0  0  0
   -9.3044  -70.6566  -20.5111 N   0  0  0  0  0  0  0  0  0  0  0  0
  1  2  1  0
  2  3  1  0
  3  4  1  0
  4  5  1  0
  5  6  1  0
  6  7  1  0
  7  8  1  6
  7  9  1  0
  9 10  2  0
 10 11  1  0
 11 12  1  0
 12 13  2  0
 13  9  1  0
M  END
>  <SLURM_JOB_NAME>  (142) 
BulkDock.place:Flavi_NS5_RdRp:RdRp_knitwork_thumb_site_2_impure_split4000_batch000

>  <fragmenstein_error>  (142) 
['']

>  <HIPPO Compound ID>  (142) 
5641

>  <alias>  (142) 
None

>  <energy_score>  (142) 
-38.795301

>  <exports>  (142) 
['/opt/xchem-fragalysis-2/maxwin/BulkDock/OUTPUTS/RdRp_knitwork_thumb_site_2_impure_split4000_batch000_211013.sdf']

>  <fragmenstein_outcome>  (142) 
['acceptable']

>  <fragmenstein_mode>  (142) 
['expansion']

>  <HIPPO Pose ID>  (142) 
51501

>  <name>  (142) 
ZIACMQDJGOQALK-VIFPVBQESA-N

>  <fragmenstein_runtime>  (142) 
[1.5216937065124512]

>  <csv_name>  (142) 
RdRp_knitwork_thumb_site_2_impure_split4000_batch000.csv

>  <inchikey>  (142) 
ZIACMQDJGOQALK-VIFPVBQESA-N

>  <original SMILES>  (142) 
CCCOCC[C@H](O)c1cscn1

>  <scratch_subdir>  (142) 
['/opt/xchem-fragalysis-2/maxwin/BulkDock/SCRATCH/211013/C5641-P17']

>  <tags>  (142) 
['Fragmenstein placed']

>  <distance_score>  (142) 
0.707671

>  <original ID>  (142) 
ZIACMQDJGOQALK-VIFPVBQESA-N

>  <ref_mols>  (142) 
d0174a,d0615a

>  <SLURM_JOB_ID>  (142) 
211013

>  <ref_pdb>  (142) 
d0174a

$$$$
51502
     RDKit          3D

 13 13  0  0  0  0  0  0  0  0999 V2000
  -15.3499  -70.6896  -25.3289 C   0  0  0  0  0  0  0  0  0  0  0  0
  -15.8542  -70.4946  -23.9109 C   0  0  0  0  0  0  0  0  0  0  0  0
  -14.7530  -69.9890  -22.9866 C   0  0  0  0  0  0  0  0  0  0  0  0
  -15.2522  -70.0282  -21.6466 O   0  0  0  0  0  0  0  0  0  0  0  0
  -14.2887  -69.5850  -20.6956 C   0  0  0  0  0  0  0  0  0  0  0  0
  -13.2183  -70.6479  -20.4086 C   0  0  0  0  0  0  0  0  0  0  0  0
  -11.8337  -70.0415  -20.6020 C   0  0  2  0  0  0  0  0  0  0  0  0
  -11.5747  -69.9264  -22.0089 O   0  0  0  0  0  0  0  0  0  0  0  0
  -10.6979  -70.7503  -19.9208 C   0  0  0  0  0  0  0  0  0  0  0  0
  -10.6794  -71.3538  -18.6776 C   0  0  0  0  0  0  0  0  0  0  0  0
   -9.0976  -71.8992  -18.3045 S   0  0  0  0  0  0  0  0  0  0  0  0
   -8.5529  -71.2970  -19.8138 C   0  0  0  0  0  0  0  0  0  0  0  0
   -9.4647  -70.7294  -20.5708 N   0  0  0  0  0  0  0  0  0  0  0  0
  1  2  1  0
  2  3  1  0
  3  4  1  0
  4  5  1  0
  5  6  1  0
  6  7  1  0
  7  8  1  6
  7  9  1  0
  9 10  2  0
 10 11  1  0
 11 12  1  0
 12 13  2  0
 13  9  1  0
M  END
>  <SLURM_JOB_NAME>  (143) 
BulkDock.place:Flavi_NS5_RdRp:RdRp_knitwork_thumb_site_2_impure_split4000_batch000

>  <fragmenstein_error>  (143) 
['']

>  <HIPPO Compound ID>  (143) 
5641

>  <alias>  (143) 
None

>  <energy_score>  (143) 
-37.861735

>  <exports>  (143) 
['/opt/xchem-fragalysis-2/maxwin/BulkDock/OUTPUTS/RdRp_knitwork_thumb_site_2_impure_split4000_batch000_211013.sdf']

>  <fragmenstein_outcome>  (143) 
['acceptable']

>  <fragmenstein_mode>  (143) 
['expansion']

>  <HIPPO Pose ID>  (143) 
51502

>  <name>  (143) 
ZIACMQDJGOQALK-VIFPVBQESA-N

>  <fragmenstein_runtime>  (143) 
[1.5970699787139893]

>  <csv_name>  (143) 
RdRp_knitwork_thumb_site_2_impure_split4000_batch000.csv

>  <inchikey>  (143) 
ZIACMQDJGOQALK-VIFPVBQESA-N

>  <original SMILES>  (143) 
CCCOCC[C@H](O)c1cscn1

>  <scratch_subdir>  (143) 
['/opt/xchem-fragalysis-2/maxwin/BulkDock/SCRATCH/211013/C5641-P50']

>  <tags>  (143) 
['Fragmenstein placed']

>  <distance_score>  (143) 
0.66797

>  <original ID>  (143) 
ZIACMQDJGOQALK-VIFPVBQESA-N

>  <ref_mols>  (143) 
d0174a,d0615a

>  <SLURM_JOB_ID>  (143) 
211013

>  <ref_pdb>  (143) 
d0615a

$$$$
51507
     RDKit          3D

 13 13  0  0  0  0  0  0  0  0999 V2000
  -13.3453  -72.0208  -20.6786 C   0  0  0  0  0  0  0  0  0  0  0  0
  -13.0984  -70.6966  -20.6759 C   0  0  0  0  0  0  0  0  0  0  0  0
  -14.1990  -69.6580  -20.6624 C   0  0  0  0  0  0  0  0  0  0  0  0
  -15.3029  -70.0459  -21.4749 O   0  0  0  0  0  0  0  0  0  0  0  0
  -15.0679  -69.7572  -22.8578 C   0  0  0  0  0  0  0  0  0  0  0  0
  -16.2672  -70.2451  -23.6484 C   0  0  0  0  0  0  0  0  0  0  0  0
  -11.7271  -70.0827  -20.7575 C   0  0  2  0  0  0  0  0  0  0  0  0
  -11.4166  -69.9337  -22.1464 O   0  0  0  0  0  0  0  0  0  0  0  0
  -10.6125  -70.7627  -20.0105 C   0  0  0  0  0  0  0  0  0  0  0  0
  -10.6425  -71.2994  -18.7360 C   0  0  0  0  0  0  0  0  0  0  0  0
   -9.0817  -71.8402  -18.2816 S   0  0  0  0  0  0  0  0  0  0  0  0
   -8.4784  -71.3186  -19.7992 C   0  0  0  0  0  0  0  0  0  0  0  0
   -9.3566  -70.7810  -20.6158 N   0  0  0  0  0  0  0  0  0  0  0  0
  1  2  2  0
  2  3  1  0
  3  4  1  0
  4  5  1  0
  5  6  1  0
  2  7  1  0
  7  8  1  6
  7  9  1  0
  9 10  2  0
 10 11  1  0
 11 12  1  0
 12 13  2  0
 13  9  1  0
M  END
>  <SLURM_JOB_NAME>  (144) 
BulkDock.place:Flavi_NS5_RdRp:RdRp_knitwork_thumb_site_2_impure_split4000_batch000

>  <fragmenstein_error>  (144) 
['']

>  <HIPPO Compound ID>  (144) 
5646

>  <alias>  (144) 
None

>  <energy_score>  (144) 
-313.875971

>  <exports>  (144) 
['/opt/xchem-fragalysis-2/maxwin/BulkDock/OUTPUTS/RdRp_knitwork_thumb_site_2_impure_split4000_batch000_211013.sdf']

>  <fragmenstein_outcome>  (144) 
['acceptable']

>  <fragmenstein_mode>  (144) 
['expansion']

>  <HIPPO Pose ID>  (144) 
51507

>  <name>  (144) 
PIGZWWWARQVZTQ-VIFPVBQESA-N

>  <fragmenstein_runtime>  (144) 
[1.413895845413208]

>  <csv_name>  (144) 
RdRp_knitwork_thumb_site_2_impure_split4000_batch000.csv

>  <inchikey>  (144) 
PIGZWWWARQVZTQ-VIFPVBQESA-N

>  <original SMILES>  (144) 
C=C(COCC)[C@H](O)c1cscn1

>  <scratch_subdir>  (144) 
['/opt/xchem-fragalysis-2/maxwin/BulkDock/SCRATCH/211013/C5646-P17']

>  <tags>  (144) 
['Fragmenstein placed']

>  <distance_score>  (144) 
0.603557

>  <original ID>  (144) 
PIGZWWWARQVZTQ-VIFPVBQESA-N

>  <ref_mols>  (144) 
d0174a,d0615a

>  <SLURM_JOB_ID>  (144) 
211013

>  <ref_pdb>  (144) 
d0174a

$$$$
51508
     RDKit          3D

 13 13  0  0  0  0  0  0  0  0999 V2000
  -13.2895  -72.0555  -20.8145 C   0  0  0  0  0  0  0  0  0  0  0  0
  -13.0689  -70.7301  -20.7215 C   0  0  0  0  0  0  0  0  0  0  0  0
  -14.1818  -69.7070  -20.6581 C   0  0  0  0  0  0  0  0  0  0  0  0
  -15.3045  -70.0934  -21.4424 O   0  0  0  0  0  0  0  0  0  0  0  0
  -15.1201  -69.7692  -22.8252 C   0  0  0  0  0  0  0  0  0  0  0  0
  -16.3385  -70.2590  -23.5842 C   0  0  0  0  0  0  0  0  0  0  0  0
  -11.7073  -70.0944  -20.7549 C   0  0  2  0  0  0  0  0  0  0  0  0
  -11.3602  -69.9203  -22.1320 O   0  0  0  0  0  0  0  0  0  0  0  0
  -10.6062  -70.7723  -19.9876 C   0  0  0  0  0  0  0  0  0  0  0  0
  -10.6545  -71.2869  -18.7050 C   0  0  0  0  0  0  0  0  0  0  0  0
   -9.1039  -71.8375  -18.2276 S   0  0  0  0  0  0  0  0  0  0  0  0
   -8.4811  -71.3488  -19.7483 C   0  0  0  0  0  0  0  0  0  0  0  0
   -9.3463  -70.8178  -20.5828 N   0  0  0  0  0  0  0  0  0  0  0  0
  1  2  2  0
  2  3  1  0
  3  4  1  0
  4  5  1  0
  5  6  1  0
  2  7  1  0
  7  8  1  6
  7  9  1  0
  9 10  2  0
 10 11  1  0
 11 12  1  0
 12 13  2  0
 13  9  1  0
M  END
>  <SLURM_JOB_NAME>  (145) 
BulkDock.place:Flavi_NS5_RdRp:RdRp_knitwork_thumb_site_2_impure_split4000_batch000

>  <fragmenstein_error>  (145) 
['']

>  <HIPPO Compound ID>  (145) 
5646

>  <alias>  (145) 
None

>  <energy_score>  (145) 
-314.012648

>  <exports>  (145) 
['/opt/xchem-fragalysis-2/maxwin/BulkDock/OUTPUTS/RdRp_knitwork_thumb_site_2_impure_split4000_batch000_211013.sdf']

>  <fragmenstein_outcome>  (145) 
['acceptable']

>  <fragmenstein_mode>  (145) 
['expansion']

>  <HIPPO Pose ID>  (145) 
51508

>  <name>  (145) 
PIGZWWWARQVZTQ-VIFPVBQESA-N

>  <fragmenstein_runtime>  (145) 
[1.9370930194854736]

>  <csv_name>  (145) 
RdRp_knitwork_thumb_site_2_impure_split4000_batch000.csv

>  <inchikey>  (145) 
PIGZWWWARQVZTQ-VIFPVBQESA-N

>  <original SMILES>  (145) 
C=C(COCC)[C@H](O)c1cscn1

>  <scratch_subdir>  (145) 
['/opt/xchem-fragalysis-2/maxwin/BulkDock/SCRATCH/211013/C5646-P50']

>  <tags>  (145) 
['Fragmenstein placed']

>  <distance_score>  (145) 
0.609166

>  <original ID>  (145) 
PIGZWWWARQVZTQ-VIFPVBQESA-N

>  <ref_mols>  (145) 
d0174a,d0615a

>  <SLURM_JOB_ID>  (145) 
211013

>  <ref_pdb>  (145) 
d0615a

$$$$
51510
     RDKit          3D

 18 18  0  0  0  0  0  0  0  0999 V2000
  -11.6495  -70.9709  -22.5261 C   0  0  0  0  0  0  0  0  0  0  0  0
  -11.7068  -71.5223  -21.1187 C   0  0  1  0  0  0  0  0  0  0  0  0
  -10.5526  -71.1288  -20.1701 C   0  0  0  0  0  0  0  0  0  0  0  0
   -9.1562  -71.2436  -20.8282 C   0  0  1  0  0  0  0  0  0  0  0  0
   -8.8266  -69.9825  -21.6154 C   0  0  0  0  0  0  0  0  0  0  0  0
   -8.0110  -71.5039  -19.8501 C   0  0  0  0  0  0  0  0  0  0  0  0
   -7.6328  -70.3783  -19.2134 F   0  0  0  0  0  0  0  0  0  0  0  0
   -8.3842  -72.3891  -18.8978 F   0  0  0  0  0  0  0  0  0  0  0  0
  -13.0522  -71.3415  -20.5097 N   0  0  0  0  0  0  0  0  0  0  0  0
  -13.7156  -69.8478  -20.1442 S   0  0  0  0  0  0  0  0  0  0  0  0
  -12.7160  -68.8206  -20.2947 O   0  0  0  0  0  0  0  0  0  0  0  0
  -14.3228  -70.0810  -18.8403 O   0  0  0  0  0  0  0  0  0  0  0  0
  -15.0793  -69.5735  -21.2891 C   0  0  0  0  0  0  0  0  0  0  0  0
  -14.7973  -69.8057  -22.7263 C   0  0  0  0  0  0  0  0  0  0  0  0
  -15.4501  -70.7039  -23.5539 C   0  0  0  0  0  0  0  0  0  0  0  0
  -14.8176  -70.6129  -25.1455 S   0  0  0  0  0  0  0  0  0  0  0  0
  -13.7372  -69.3918  -24.6261 C   0  0  0  0  0  0  0  0  0  0  0  0
  -13.8524  -69.0265  -23.3680 N   0  0  0  0  0  0  0  0  0  0  0  0
  2  1  1  6
  2  3  1  0
  3  4  1  0
  4  5  1  1
  4  6  1  0
  6  7  1  0
  6  8  1  0
  2  9  1  0
  9 10  1  0
 10 11  2  0
 10 12  2  0
 10 13  1  0
 13 14  1  0
 14 15  2  0
 15 16  1  0
 16 17  1  0
 17 18  2  0
 18 14  1  0
M  END
>  <SLURM_JOB_NAME>  (146) 
BulkDock.place:Flavi_NS5_RdRp:RdRp_knitwork_thumb_site_2_impure_split4000_batch000

>  <fragmenstein_error>  (146) 
['']

>  <HIPPO Compound ID>  (146) 
5663

>  <alias>  (146) 
None

>  <energy_score>  (146) 
-94.503793

>  <exports>  (146) 
['/opt/xchem-fragalysis-2/maxwin/BulkDock/OUTPUTS/RdRp_knitwork_thumb_site_2_impure_split4000_batch000_211013.sdf']

>  <fragmenstein_outcome>  (146) 
['acceptable']

>  <fragmenstein_mode>  (146) 
['expansion']

>  <HIPPO Pose ID>  (146) 
51510

>  <name>  (146) 
QQPIZLOXKJHKMI-SFYZADRCSA-N

>  <fragmenstein_runtime>  (146) 
[2.0331385135650635]

>  <csv_name>  (146) 
RdRp_knitwork_thumb_site_2_impure_split4000_batch000.csv

>  <inchikey>  (146) 
QQPIZLOXKJHKMI-SFYZADRCSA-N

>  <original SMILES>  (146) 
C[C@H](C[C@H](C)NS(=O)(=O)Cc1cscn1)C(F)F

>  <scratch_subdir>  (146) 
['/opt/xchem-fragalysis-2/maxwin/BulkDock/SCRATCH/211013/C5663-P17']

>  <tags>  (146) 
['Fragmenstein placed']

>  <distance_score>  (146) 
0.977137

>  <original ID>  (146) 
QQPIZLOXKJHKMI-SFYZADRCSA-N

>  <ref_mols>  (146) 
d0174a,d0615a

>  <SLURM_JOB_ID>  (146) 
211013

>  <ref_pdb>  (146) 
d0174a

$$$$
51513
     RDKit          3D

 18 18  0  0  0  0  0  0  0  0999 V2000
  -11.6654  -70.8696  -22.5412 C   0  0  0  0  0  0  0  0  0  0  0  0
  -11.6860  -71.4555  -21.1462 C   0  0  1  0  0  0  0  0  0  0  0  0
  -10.5310  -71.0517  -20.2028 C   0  0  0  0  0  0  0  0  0  0  0  0
   -9.1320  -71.1774  -20.8561 C   0  0  1  0  0  0  0  0  0  0  0  0
   -8.7792  -69.9119  -21.6258 C   0  0  0  0  0  0  0  0  0  0  0  0
   -7.9987  -71.4508  -19.8666 C   0  0  0  0  0  0  0  0  0  0  0  0
   -7.6387  -70.3347  -19.2027 F   0  0  0  0  0  0  0  0  0  0  0  0
   -8.3805  -72.3580  -18.9385 F   0  0  0  0  0  0  0  0  0  0  0  0
  -13.0291  -71.3243  -20.5134 N   0  0  0  0  0  0  0  0  0  0  0  0
  -13.7092  -69.8495  -20.0930 S   0  0  0  0  0  0  0  0  0  0  0  0
  -12.7425  -68.7977  -20.2816 O   0  0  0  0  0  0  0  0  0  0  0  0
  -14.2493  -70.1158  -18.7669 O   0  0  0  0  0  0  0  0  0  0  0  0
  -15.1291  -69.5903  -21.1709 C   0  0  0  0  0  0  0  0  0  0  0  0
  -14.9260  -69.8770  -22.6115 C   0  0  0  0  0  0  0  0  0  0  0  0
  -15.5940  -70.8337  -23.3566 C   0  0  0  0  0  0  0  0  0  0  0  0
  -15.0857  -70.7749  -24.9928 S   0  0  0  0  0  0  0  0  0  0  0  0
  -14.0031  -69.5138  -24.5890 C   0  0  0  0  0  0  0  0  0  0  0  0
  -14.0525  -69.0962  -23.3433 N   0  0  0  0  0  0  0  0  0  0  0  0
  2  1  1  6
  2  3  1  0
  3  4  1  0
  4  5  1  1
  4  6  1  0
  6  7  1  0
  6  8  1  0
  2  9  1  0
  9 10  1  0
 10 11  2  0
 10 12  2  0
 10 13  1  0
 13 14  1  0
 14 15  2  0
 15 16  1  0
 16 17  1  0
 17 18  2  0
 18 14  1  0
M  END
>  <SLURM_JOB_NAME>  (147) 
BulkDock.place:Flavi_NS5_RdRp:RdRp_knitwork_thumb_site_2_impure_split4000_batch000

>  <fragmenstein_error>  (147) 
['']

>  <HIPPO Compound ID>  (147) 
5663

>  <alias>  (147) 
None

>  <energy_score>  (147) 
-95.967835

>  <exports>  (147) 
['/opt/xchem-fragalysis-2/maxwin/BulkDock/OUTPUTS/RdRp_knitwork_thumb_site_2_impure_split4000_batch000_211013.sdf']

>  <fragmenstein_outcome>  (147) 
['acceptable']

>  <fragmenstein_mode>  (147) 
['expansion']

>  <HIPPO Pose ID>  (147) 
51513

>  <name>  (147) 
QQPIZLOXKJHKMI-SFYZADRCSA-N

>  <fragmenstein_runtime>  (147) 
[1.9371957778930664]

>  <csv_name>  (147) 
RdRp_knitwork_thumb_site_2_impure_split4000_batch000.csv

>  <inchikey>  (147) 
QQPIZLOXKJHKMI-SFYZADRCSA-N

>  <original SMILES>  (147) 
C[C@H](C[C@H](C)NS(=O)(=O)Cc1cscn1)C(F)F

>  <scratch_subdir>  (147) 
['/opt/xchem-fragalysis-2/maxwin/BulkDock/SCRATCH/211013/C5663-P50']

>  <tags>  (147) 
['Fragmenstein placed']

>  <distance_score>  (147) 
0.987583

>  <original ID>  (147) 
QQPIZLOXKJHKMI-SFYZADRCSA-N

>  <ref_mols>  (147) 
d0174a,d0615a

>  <SLURM_JOB_ID>  (147) 
211013

>  <ref_pdb>  (147) 
d0615a

$$$$
51522
     RDKit          3D

 13 13  0  0  0  0  0  0  0  0999 V2000
  -11.5574  -71.4372  -22.6658 C   0  0  0  0  0  0  0  0  0  0  0  0
  -11.7156  -70.5700  -21.4210 C   0  0  1  0  0  0  0  0  0  0  0  0
  -13.0096  -70.9069  -20.8045 N   0  0  0  0  0  0  0  0  0  0  0  0
  -13.9000  -69.6639  -20.1383 S   0  0  0  0  0  0  0  0  0  0  0  0
  -13.0553  -68.5000  -20.0420 O   0  0  0  0  0  0  0  0  0  0  0  0
  -14.4940  -70.2307  -18.9405 O   0  0  0  0  0  0  0  0  0  0  0  0
  -15.2094  -69.3518  -21.3277 C   0  0  0  0  0  0  0  0  0  0  0  0
  -14.5950  -69.3296  -22.9835 Cl  0  0  0  0  0  0  0  0  0  0  0  0
  -10.6046  -70.7949  -20.4319 C   0  0  0  0  0  0  0  0  0  0  0  0
  -10.6197  -71.2570  -19.1254 C   0  0  0  0  0  0  0  0  0  0  0  0
   -9.3920  -71.3785  -18.4998 N   0  0  0  0  0  0  0  0  0  0  0  0
   -8.4525  -70.9777  -19.3262 C   0  0  0  0  0  0  0  0  0  0  0  0
   -8.9757  -70.4325  -20.8597 S   0  0  0  0  0  0  0  0  0  0  0  0
  2  1  1  6
  2  3  1  0
  3  4  1  0
  4  5  2  0
  4  6  2  0
  4  7  1  0
  7  8  1  0
  2  9  1  0
  9 10  2  0
 10 11  1  0
 11 12  2  0
 12 13  1  0
 13  9  1  0
M  END
>  <SLURM_JOB_NAME>  (148) 
BulkDock.place:Flavi_NS5_RdRp:RdRp_knitwork_thumb_site_2_impure_split4000_batch000

>  <fragmenstein_error>  (148) 
['']

>  <HIPPO Compound ID>  (148) 
5680

>  <alias>  (148) 
None

>  <energy_score>  (148) 
-110.419202

>  <exports>  (148) 
['/opt/xchem-fragalysis-2/maxwin/BulkDock/OUTPUTS/RdRp_knitwork_thumb_site_2_impure_split4000_batch000_211013.sdf']

>  <fragmenstein_outcome>  (148) 
['acceptable']

>  <fragmenstein_mode>  (148) 
['expansion']

>  <HIPPO Pose ID>  (148) 
51522

>  <name>  (148) 
UYCRIKCCINVGEM-RXMQYKEDSA-N

>  <fragmenstein_runtime>  (148) 
[1.3350753784179688]

>  <csv_name>  (148) 
RdRp_knitwork_thumb_site_2_impure_split4000_batch000.csv

>  <inchikey>  (148) 
UYCRIKCCINVGEM-RXMQYKEDSA-N

>  <original SMILES>  (148) 
C[C@@H](NS(=O)(=O)CCl)c1cncs1

>  <scratch_subdir>  (148) 
['/opt/xchem-fragalysis-2/maxwin/BulkDock/SCRATCH/211013/C5680-P17']

>  <tags>  (148) 
['Fragmenstein placed']

>  <distance_score>  (148) 
0.567241

>  <original ID>  (148) 
UYCRIKCCINVGEM-RXMQYKEDSA-N

>  <ref_mols>  (148) 
d0174a,d0615a

>  <SLURM_JOB_ID>  (148) 
211013

>  <ref_pdb>  (148) 
d0174a

$$$$
51524
     RDKit          3D

 13 13  0  0  0  0  0  0  0  0999 V2000
  -11.6171  -71.2241  -22.7967 C   0  0  0  0  0  0  0  0  0  0  0  0
  -11.7382  -70.4497  -21.4918 C   0  0  1  0  0  0  0  0  0  0  0  0
  -13.0125  -70.7832  -20.8509 N   0  0  0  0  0  0  0  0  0  0  0  0
  -13.9626  -69.5386  -20.2803 S   0  0  0  0  0  0  0  0  0  0  0  0
  -13.0658  -68.5114  -19.8115 O   0  0  0  0  0  0  0  0  0  0  0  0
  -14.8958  -70.1562  -19.3642 O   0  0  0  0  0  0  0  0  0  0  0  0
  -14.8416  -68.8936  -21.7139 C   0  0  0  0  0  0  0  0  0  0  0  0
  -15.3111  -70.2000  -22.8070 Cl  0  0  0  0  0  0  0  0  0  0  0  0
  -10.6224  -70.7651  -20.5370 C   0  0  0  0  0  0  0  0  0  0  0  0
  -10.6352  -71.4080  -19.3096 C   0  0  0  0  0  0  0  0  0  0  0  0
   -9.4154  -71.5372  -18.6697 N   0  0  0  0  0  0  0  0  0  0  0  0
   -8.4852  -70.9803  -19.4118 C   0  0  0  0  0  0  0  0  0  0  0  0
   -9.0073  -70.2837  -20.8845 S   0  0  0  0  0  0  0  0  0  0  0  0
  2  1  1  6
  2  3  1  0
  3  4  1  0
  4  5  2  0
  4  6  2  0
  4  7  1  0
  7  8  1  0
  2  9  1  0
  9 10  2  0
 10 11  1  0
 11 12  2  0
 12 13  1  0
 13  9  1  0
M  END
>  <SLURM_JOB_NAME>  (149) 
BulkDock.place:Flavi_NS5_RdRp:RdRp_knitwork_thumb_site_2_impure_split4000_batch000

>  <fragmenstein_error>  (149) 
['']

>  <HIPPO Compound ID>  (149) 
5680

>  <alias>  (149) 
None

>  <energy_score>  (149) 
-110.775741

>  <exports>  (149) 
['/opt/xchem-fragalysis-2/maxwin/BulkDock/OUTPUTS/RdRp_knitwork_thumb_site_2_impure_split4000_batch000_211013.sdf']

>  <fragmenstein_outcome>  (149) 
['acceptable']

>  <fragmenstein_mode>  (149) 
['expansion']

>  <HIPPO Pose ID>  (149) 
51524

>  <name>  (149) 
UYCRIKCCINVGEM-RXMQYKEDSA-N

>  <fragmenstein_runtime>  (149) 
[1.8611478805541992]

>  <csv_name>  (149) 
RdRp_knitwork_thumb_site_2_impure_split4000_batch000.csv

>  <inchikey>  (149) 
UYCRIKCCINVGEM-RXMQYKEDSA-N

>  <original SMILES>  (149) 
C[C@@H](NS(=O)(=O)CCl)c1cncs1

>  <scratch_subdir>  (149) 
['/opt/xchem-fragalysis-2/maxwin/BulkDock/SCRATCH/211013/C5680-P50']

>  <tags>  (149) 
['Fragmenstein placed']

>  <distance_score>  (149) 
0.636966

>  <original ID>  (149) 
UYCRIKCCINVGEM-RXMQYKEDSA-N

>  <ref_mols>  (149) 
d0174a,d0615a

>  <SLURM_JOB_ID>  (149) 
211013

>  <ref_pdb>  (149) 
d0615a

$$$$
51530
     RDKit          3D

 13 13  0  0  0  0  0  0  0  0999 V2000
  -15.8793  -70.3419  -24.1115 C   0  0  0  0  0  0  0  0  0  0  0  0
  -15.1879  -69.9274  -22.8899 C   0  0  0  0  0  0  0  0  0  0  0  0
  -14.6033  -69.6063  -21.8918 C   0  0  0  0  0  0  0  0  0  0  0  0
  -13.8143  -69.2216  -20.7188 C   0  0  0  0  0  0  0  0  0  0  0  0
  -13.0084  -70.3810  -20.1785 C   0  0  0  0  0  0  0  0  0  0  0  0
  -13.3167  -70.8734  -19.0824 O   0  0  0  0  0  0  0  0  0  0  0  0
  -11.8490  -70.9214  -21.0492 C   0  0  1  0  0  0  0  0  0  0  0  0
  -11.5410  -70.0993  -22.1768 O   0  0  0  0  0  0  0  0  0  0  0  0
  -10.6012  -71.1293  -20.2231 C   0  0  0  0  0  0  0  0  0  0  0  0
  -10.4519  -71.8893  -19.0776 C   0  0  0  0  0  0  0  0  0  0  0  0
   -8.8322  -71.8190  -18.5232 S   0  0  0  0  0  0  0  0  0  0  0  0
   -8.4304  -70.8293  -19.8652 C   0  0  0  0  0  0  0  0  0  0  0  0
   -9.4239  -70.5215  -20.6708 N   0  0  0  0  0  0  0  0  0  0  0  0
  1  2  1  0
  2  3  3  0
  3  4  1  0
  4  5  1  0
  5  6  2  0
  5  7  1  0
  7  8  1  6
  7  9  1  0
  9 10  2  0
 10 11  1  0
 11 12  1  0
 12 13  2  0
 13  9  1  0
M  END
>  <SLURM_JOB_NAME>  (150) 
BulkDock.place:Flavi_NS5_RdRp:RdRp_knitwork_thumb_site_2_impure_split4000_batch000

>  <fragmenstein_error>  (150) 
['']

>  <HIPPO Compound ID>  (150) 
5747

>  <alias>  (150) 
None

>  <energy_score>  (150) 
-173.275633

>  <exports>  (150) 
['/opt/xchem-fragalysis-2/maxwin/BulkDock/OUTPUTS/RdRp_knitwork_thumb_site_2_impure_split4000_batch000_211013.sdf']

>  <fragmenstein_outcome>  (150) 
['acceptable']

>  <fragmenstein_mode>  (150) 
['expansion']

>  <HIPPO Pose ID>  (150) 
51530

>  <name>  (150) 
OUCTYICPGZXSCK-VIFPVBQESA-N

>  <fragmenstein_runtime>  (150) 
[1.2137811183929443]

>  <csv_name>  (150) 
RdRp_knitwork_thumb_site_2_impure_split4000_batch000.csv

>  <inchikey>  (150) 
OUCTYICPGZXSCK-VIFPVBQESA-N

>  <original SMILES>  (150) 
CC#CCC(=O)[C@@H](O)c1cscn1

>  <scratch_subdir>  (150) 
['/opt/xchem-fragalysis-2/maxwin/BulkDock/SCRATCH/211013/C5747-P17']

>  <tags>  (150) 
['Fragmenstein placed']

>  <distance_score>  (150) 
0.698702

>  <original ID>  (150) 
OUCTYICPGZXSCK-VIFPVBQESA-N

>  <ref_mols>  (150) 
d0174a,d0615a

>  <SLURM_JOB_ID>  (150) 
211013

>  <ref_pdb>  (150) 
d0174a

$$$$
51531
     RDKit          3D

 13 13  0  0  0  0  0  0  0  0999 V2000
  -15.7576  -70.4598  -24.1254 C   0  0  0  0  0  0  0  0  0  0  0  0
  -15.0923  -70.0310  -22.8943 C   0  0  0  0  0  0  0  0  0  0  0  0
  -14.5278  -69.7034  -21.8868 C   0  0  0  0  0  0  0  0  0  0  0  0
  -13.7678  -69.3048  -20.6995 C   0  0  0  0  0  0  0  0  0  0  0  0
  -12.8781  -70.4117  -20.1831 C   0  0  0  0  0  0  0  0  0  0  0  0
  -13.0873  -70.8878  -19.0594 O   0  0  0  0  0  0  0  0  0  0  0  0
  -11.7372  -70.9171  -21.0922 C   0  0  1  0  0  0  0  0  0  0  0  0
  -11.4384  -70.0503  -22.1872 O   0  0  0  0  0  0  0  0  0  0  0  0
  -10.4777  -71.1492  -20.2849 C   0  0  0  0  0  0  0  0  0  0  0  0
  -10.3142  -71.9452  -19.1657 C   0  0  0  0  0  0  0  0  0  0  0  0
   -8.6975  -71.8630  -18.6065 S   0  0  0  0  0  0  0  0  0  0  0  0
   -8.3133  -70.8241  -19.9158 C   0  0  0  0  0  0  0  0  0  0  0  0
   -9.3102  -70.5098  -20.7144 N   0  0  0  0  0  0  0  0  0  0  0  0
  1  2  1  0
  2  3  3  0
  3  4  1  0
  4  5  1  0
  5  6  2  0
  5  7  1  0
  7  8  1  6
  7  9  1  0
  9 10  2  0
 10 11  1  0
 11 12  1  0
 12 13  2  0
 13  9  1  0
M  END
>  <SLURM_JOB_NAME>  (151) 
BulkDock.place:Flavi_NS5_RdRp:RdRp_knitwork_thumb_site_2_impure_split4000_batch000

>  <fragmenstein_error>  (151) 
['']

>  <HIPPO Compound ID>  (151) 
5747

>  <alias>  (151) 
None

>  <energy_score>  (151) 
-173.253976

>  <exports>  (151) 
['/opt/xchem-fragalysis-2/maxwin/BulkDock/OUTPUTS/RdRp_knitwork_thumb_site_2_impure_split4000_batch000_211013.sdf']

>  <fragmenstein_outcome>  (151) 
['acceptable']

>  <fragmenstein_mode>  (151) 
['expansion']

>  <HIPPO Pose ID>  (151) 
51531

>  <name>  (151) 
OUCTYICPGZXSCK-VIFPVBQESA-N

>  <fragmenstein_runtime>  (151) 
[1.2756009101867676]

>  <csv_name>  (151) 
RdRp_knitwork_thumb_site_2_impure_split4000_batch000.csv

>  <inchikey>  (151) 
OUCTYICPGZXSCK-VIFPVBQESA-N

>  <original SMILES>  (151) 
CC#CCC(=O)[C@@H](O)c1cscn1

>  <scratch_subdir>  (151) 
['/opt/xchem-fragalysis-2/maxwin/BulkDock/SCRATCH/211013/C5747-P50']

>  <tags>  (151) 
['Fragmenstein placed']

>  <distance_score>  (151) 
0.668596

>  <original ID>  (151) 
OUCTYICPGZXSCK-VIFPVBQESA-N

>  <ref_mols>  (151) 
d0174a,d0615a

>  <SLURM_JOB_ID>  (151) 
211013

>  <ref_pdb>  (151) 
d0615a

$$$$
51533
     RDKit          3D

 12 12  0  0  0  0  0  0  0  0999 V2000
  -14.8503  -69.2876  -21.4855 C   0  0  0  0  0  0  0  0  0  0  0  0
  -13.7512  -69.8137  -20.5971 C   0  0  0  0  0  0  0  0  0  0  0  0
  -13.2897  -69.1298  -19.6856 O   0  0  0  0  0  0  0  0  0  0  0  0
  -13.2656  -71.2241  -20.8585 C   0  0  0  0  0  0  0  0  0  0  0  0
  -11.8480  -71.3138  -21.4421 C   0  0  2  0  0  0  0  0  0  0  0  0
  -11.6944  -70.3689  -22.6376 C   0  0  0  0  0  0  0  0  0  0  0  0
  -11.7536  -72.6441  -22.0011 O   0  0  0  0  0  0  0  0  0  0  0  0
  -10.7159  -71.1580  -20.4417 C   0  0  0  0  0  0  0  0  0  0  0  0
  -10.7811  -71.1258  -19.0597 C   0  0  0  0  0  0  0  0  0  0  0  0
   -9.2092  -71.1722  -18.3777 S   0  0  0  0  0  0  0  0  0  0  0  0
   -8.5445  -71.1455  -19.9568 C   0  0  0  0  0  0  0  0  0  0  0  0
   -9.4122  -71.1772  -20.9439 N   0  0  0  0  0  0  0  0  0  0  0  0
  1  2  1  0
  2  3  2  0
  2  4  1  0
  4  5  1  0
  5  6  1  6
  5  7  1  0
  5  8  1  0
  8  9  2  0
  9 10  1  0
 10 11  1  0
 11 12  2  0
 12  8  1  0
M  END
>  <SLURM_JOB_NAME>  (152) 
BulkDock.place:Flavi_NS5_RdRp:RdRp_knitwork_thumb_site_2_impure_split4000_batch000

>  <fragmenstein_error>  (152) 
['']

>  <HIPPO Compound ID>  (152) 
5750

>  <alias>  (152) 
None

>  <energy_score>  (152) 
-83.642257

>  <exports>  (152) 
['/opt/xchem-fragalysis-2/maxwin/BulkDock/OUTPUTS/RdRp_knitwork_thumb_site_2_impure_split4000_batch000_211013.sdf']

>  <fragmenstein_outcome>  (152) 
['acceptable']

>  <fragmenstein_mode>  (152) 
['expansion']

>  <HIPPO Pose ID>  (152) 
51533

>  <name>  (152) 
LJPINKVGQAZAER-QMMMGPOBSA-N

>  <fragmenstein_runtime>  (152) 
[1.3304171562194824]

>  <csv_name>  (152) 
RdRp_knitwork_thumb_site_2_impure_split4000_batch000.csv

>  <inchikey>  (152) 
LJPINKVGQAZAER-QMMMGPOBSA-N

>  <original SMILES>  (152) 
CC(=O)C[C@](C)(O)c1cscn1

>  <scratch_subdir>  (152) 
['/opt/xchem-fragalysis-2/maxwin/BulkDock/SCRATCH/211013/C5750-P17']

>  <tags>  (152) 
['Fragmenstein placed']

>  <distance_score>  (152) 
0.63956

>  <original ID>  (152) 
LJPINKVGQAZAER-QMMMGPOBSA-N

>  <ref_mols>  (152) 
d0174a,d0615a

>  <SLURM_JOB_ID>  (152) 
211013

>  <ref_pdb>  (152) 
d0174a

$$$$
51534
     RDKit          3D

 12 12  0  0  0  0  0  0  0  0999 V2000
  -15.0255  -69.3110  -21.2815 C   0  0  0  0  0  0  0  0  0  0  0  0
  -13.7674  -69.7282  -20.5629 C   0  0  0  0  0  0  0  0  0  0  0  0
  -13.1518  -68.9386  -19.8493 O   0  0  0  0  0  0  0  0  0  0  0  0
  -13.3029  -71.1555  -20.7648 C   0  0  0  0  0  0  0  0  0  0  0  0
  -11.9077  -71.2789  -21.3954 C   0  0  2  0  0  0  0  0  0  0  0  0
  -11.7717  -70.3527  -22.6087 C   0  0  0  0  0  0  0  0  0  0  0  0
  -11.8566  -72.6193  -21.9414 O   0  0  0  0  0  0  0  0  0  0  0  0
  -10.7402  -71.1380  -20.4341 C   0  0  0  0  0  0  0  0  0  0  0  0
  -10.7626  -70.9975  -19.0576 C   0  0  0  0  0  0  0  0  0  0  0  0
   -9.1799  -71.1262  -18.4122 S   0  0  0  0  0  0  0  0  0  0  0  0
   -8.5609  -71.2515  -20.0043 C   0  0  0  0  0  0  0  0  0  0  0  0
   -9.4561  -71.2901  -20.9659 N   0  0  0  0  0  0  0  0  0  0  0  0
  1  2  1  0
  2  3  2  0
  2  4  1  0
  4  5  1  0
  5  6  1  6
  5  7  1  0
  5  8  1  0
  8  9  2  0
  9 10  1  0
 10 11  1  0
 11 12  2  0
 12  8  1  0
M  END
>  <SLURM_JOB_NAME>  (153) 
BulkDock.place:Flavi_NS5_RdRp:RdRp_knitwork_thumb_site_2_impure_split4000_batch000

>  <fragmenstein_error>  (153) 
['']

>  <HIPPO Compound ID>  (153) 
5750

>  <alias>  (153) 
None

>  <energy_score>  (153) 
-83.882883

>  <exports>  (153) 
['/opt/xchem-fragalysis-2/maxwin/BulkDock/OUTPUTS/RdRp_knitwork_thumb_site_2_impure_split4000_batch000_211013.sdf']

>  <fragmenstein_outcome>  (153) 
['acceptable']

>  <fragmenstein_mode>  (153) 
['expansion']

>  <HIPPO Pose ID>  (153) 
51534

>  <name>  (153) 
LJPINKVGQAZAER-QMMMGPOBSA-N

>  <fragmenstein_runtime>  (153) 
[1.4562876224517822]

>  <csv_name>  (153) 
RdRp_knitwork_thumb_site_2_impure_split4000_batch000.csv

>  <inchikey>  (153) 
LJPINKVGQAZAER-QMMMGPOBSA-N

>  <original SMILES>  (153) 
CC(=O)C[C@](C)(O)c1cscn1

>  <scratch_subdir>  (153) 
['/opt/xchem-fragalysis-2/maxwin/BulkDock/SCRATCH/211013/C5750-P50']

>  <tags>  (153) 
['Fragmenstein placed']

>  <distance_score>  (153) 
0.915647

>  <original ID>  (153) 
LJPINKVGQAZAER-QMMMGPOBSA-N

>  <ref_mols>  (153) 
d0174a,d0615a

>  <SLURM_JOB_ID>  (153) 
211013

>  <ref_pdb>  (153) 
d0615a

$$$$
51554
     RDKit          3D

 13 13  0  0  0  0  0  0  0  0999 V2000
  -14.4606  -69.5869  -23.0747 C   0  0  0  0  0  0  0  0  0  0  0  0
  -14.8920  -69.8447  -21.7428 O   0  0  0  0  0  0  0  0  0  0  0  0
  -13.9211  -69.4884  -20.7583 C   0  0  0  0  0  0  0  0  0  0  0  0
  -12.9353  -70.6165  -20.3464 C   0  0  2  0  0  0  0  0  0  0  0  0
  -13.4479  -72.0178  -20.6798 C   0  0  0  0  0  0  0  0  0  0  0  0
  -12.8263  -70.5233  -18.9109 O   0  0  0  0  0  0  0  0  0  0  0  0
  -11.5653  -70.4477  -21.0715 C   0  0  0  0  0  0  0  0  0  0  0  0
  -11.5274  -69.9614  -22.2048 O   0  0  0  0  0  0  0  0  0  0  0  0
  -10.3623  -70.8774  -20.3676 C   0  0  0  0  0  0  0  0  0  0  0  0
  -10.1861  -71.6144  -19.2103 C   0  0  0  0  0  0  0  0  0  0  0  0
   -8.8813  -71.7750  -18.7818 N   0  0  0  0  0  0  0  0  0  0  0  0
   -8.0708  -71.2113  -19.6507 C   0  0  0  0  0  0  0  0  0  0  0  0
   -8.8175  -70.4456  -20.9849 S   0  0  0  0  0  0  0  0  0  0  0  0
  1  2  1  0
  2  3  1  0
  3  4  1  0
  4  5  1  1
  4  6  1  0
  4  7  1  0
  7  8  2  0
  7  9  1  0
  9 10  2  0
 10 11  1  0
 11 12  2  0
 12 13  1  0
 13  9  1  0
M  END
>  <SLURM_JOB_NAME>  (154) 
BulkDock.place:Flavi_NS5_RdRp:RdRp_knitwork_thumb_site_2_impure_split4000_batch000

>  <fragmenstein_error>  (154) 
['']

>  <HIPPO Compound ID>  (154) 
5785

>  <alias>  (154) 
None

>  <energy_score>  (154) 
-43.182435

>  <exports>  (154) 
['/opt/xchem-fragalysis-2/maxwin/BulkDock/OUTPUTS/RdRp_knitwork_thumb_site_2_impure_split4000_batch000_211013.sdf']

>  <fragmenstein_outcome>  (154) 
['acceptable']

>  <fragmenstein_mode>  (154) 
['expansion']

>  <HIPPO Pose ID>  (154) 
51554

>  <name>  (154) 
RPLDJFSBRGRKQP-QMMMGPOBSA-N

>  <fragmenstein_runtime>  (154) 
[0.9603159427642822]

>  <csv_name>  (154) 
RdRp_knitwork_thumb_site_2_impure_split4000_batch000.csv

>  <inchikey>  (154) 
RPLDJFSBRGRKQP-QMMMGPOBSA-N

>  <original SMILES>  (154) 
COC[C@](C)(O)C(=O)c1cncs1

>  <scratch_subdir>  (154) 
['/opt/xchem-fragalysis-2/maxwin/BulkDock/SCRATCH/211013/C5785-P17']

>  <tags>  (154) 
['Fragmenstein placed']

>  <distance_score>  (154) 
0.561714

>  <original ID>  (154) 
RPLDJFSBRGRKQP-QMMMGPOBSA-N

>  <ref_mols>  (154) 
d0174a,d0615a

>  <SLURM_JOB_ID>  (154) 
211013

>  <ref_pdb>  (154) 
d0174a

$$$$
51560
     RDKit          3D

 13 13  0  0  0  0  0  0  0  0999 V2000
  -14.4346  -69.5386  -23.0932 C   0  0  0  0  0  0  0  0  0  0  0  0
  -14.8770  -69.7976  -21.7651 O   0  0  0  0  0  0  0  0  0  0  0  0
  -13.9015  -69.4761  -20.7734 C   0  0  0  0  0  0  0  0  0  0  0  0
  -12.9354  -70.6307  -20.3845 C   0  0  2  0  0  0  0  0  0  0  0  0
  -13.4400  -72.0084  -20.8168 C   0  0  0  0  0  0  0  0  0  0  0  0
  -12.8759  -70.6173  -18.9425 O   0  0  0  0  0  0  0  0  0  0  0  0
  -11.5477  -70.4303  -21.0684 C   0  0  0  0  0  0  0  0  0  0  0  0
  -11.4870  -69.9198  -22.1903 O   0  0  0  0  0  0  0  0  0  0  0  0
  -10.3563  -70.8637  -20.3490 C   0  0  0  0  0  0  0  0  0  0  0  0
  -10.1951  -71.6286  -19.2083 C   0  0  0  0  0  0  0  0  0  0  0  0
   -8.8962  -71.7894  -18.7608 N   0  0  0  0  0  0  0  0  0  0  0  0
   -8.0749  -71.2002  -19.6020 C   0  0  0  0  0  0  0  0  0  0  0  0
   -8.8031  -70.4013  -20.9266 S   0  0  0  0  0  0  0  0  0  0  0  0
  1  2  1  0
  2  3  1  0
  3  4  1  0
  4  5  1  1
  4  6  1  0
  4  7  1  0
  7  8  2  0
  7  9  1  0
  9 10  2  0
 10 11  1  0
 11 12  2  0
 12 13  1  0
 13  9  1  0
M  END
>  <SLURM_JOB_NAME>  (155) 
BulkDock.place:Flavi_NS5_RdRp:RdRp_knitwork_thumb_site_2_impure_split4000_batch000

>  <fragmenstein_error>  (155) 
['']

>  <HIPPO Compound ID>  (155) 
5785

>  <alias>  (155) 
None

>  <energy_score>  (155) 
-42.893144

>  <exports>  (155) 
['/opt/xchem-fragalysis-2/maxwin/BulkDock/OUTPUTS/RdRp_knitwork_thumb_site_2_impure_split4000_batch000_211013.sdf']

>  <fragmenstein_outcome>  (155) 
['acceptable']

>  <fragmenstein_mode>  (155) 
['expansion']

>  <HIPPO Pose ID>  (155) 
51560

>  <name>  (155) 
RPLDJFSBRGRKQP-QMMMGPOBSA-N

>  <fragmenstein_runtime>  (155) 
[1.1712698936462402]

>  <csv_name>  (155) 
RdRp_knitwork_thumb_site_2_impure_split4000_batch000.csv

>  <inchikey>  (155) 
RPLDJFSBRGRKQP-QMMMGPOBSA-N

>  <original SMILES>  (155) 
COC[C@](C)(O)C(=O)c1cncs1

>  <scratch_subdir>  (155) 
['/opt/xchem-fragalysis-2/maxwin/BulkDock/SCRATCH/211013/C5785-P50']

>  <tags>  (155) 
['Fragmenstein placed']

>  <distance_score>  (155) 
0.568651

>  <original ID>  (155) 
RPLDJFSBRGRKQP-QMMMGPOBSA-N

>  <ref_mols>  (155) 
d0174a,d0615a

>  <SLURM_JOB_ID>  (155) 
211013

>  <ref_pdb>  (155) 
d0615a

$$$$
51565
     RDKit          3D

 13 13  0  0  0  0  0  0  0  0999 V2000
  -14.2516  -69.6047  -23.2207 C   0  0  0  0  0  0  0  0  0  0  0  0
  -14.8787  -69.3538  -21.8566 C   0  0  0  0  0  0  0  0  0  0  0  0
  -16.0525  -70.3028  -21.6317 C   0  0  0  0  0  0  0  0  0  0  0  0
  -13.8715  -69.3203  -20.6861 C   0  0  0  0  0  0  0  0  0  0  0  0
  -12.9539  -70.5197  -20.3833 C   0  0  1  0  0  0  0  0  0  0  0  0
  -13.6149  -71.7634  -20.5167 O   0  0  0  0  0  0  0  0  0  0  0  0
  -11.5867  -70.4657  -21.1079 C   0  0  0  0  0  0  0  0  0  0  0  0
  -11.5094  -70.1001  -22.2809 O   0  0  0  0  0  0  0  0  0  0  0  0
  -10.3902  -70.8773  -20.3542 C   0  0  0  0  0  0  0  0  0  0  0  0
  -10.3846  -71.6342  -19.1937 C   0  0  0  0  0  0  0  0  0  0  0  0
   -8.7839  -71.8420  -18.6141 S   0  0  0  0  0  0  0  0  0  0  0  0
   -8.2015  -70.9591  -19.9625 C   0  0  0  0  0  0  0  0  0  0  0  0
   -9.1175  -70.5078  -20.7881 N   0  0  0  0  0  0  0  0  0  0  0  0
  1  2  1  0
  2  3  1  0
  2  4  1  0
  4  5  1  0
  5  6  1  6
  5  7  1  0
  7  8  2  0
  7  9  1  0
  9 10  2  0
 10 11  1  0
 11 12  1  0
 12 13  2  0
 13  9  1  0
M  END
>  <SLURM_JOB_NAME>  (156) 
BulkDock.place:Flavi_NS5_RdRp:RdRp_knitwork_thumb_site_2_impure_split4000_batch000

>  <fragmenstein_error>  (156) 
['']

>  <HIPPO Compound ID>  (156) 
5789

>  <alias>  (156) 
None

>  <energy_score>  (156) 
-48.580823

>  <exports>  (156) 
['/opt/xchem-fragalysis-2/maxwin/BulkDock/OUTPUTS/RdRp_knitwork_thumb_site_2_impure_split4000_batch000_211013.sdf']

>  <fragmenstein_outcome>  (156) 
['acceptable']

>  <fragmenstein_mode>  (156) 
['expansion']

>  <HIPPO Pose ID>  (156) 
51565

>  <name>  (156) 
UBWYAMJCCVYQHK-MRVPVSSYSA-N

>  <fragmenstein_runtime>  (156) 
[1.6140999794006348]

>  <csv_name>  (156) 
RdRp_knitwork_thumb_site_2_impure_split4000_batch000.csv

>  <inchikey>  (156) 
UBWYAMJCCVYQHK-MRVPVSSYSA-N

>  <original SMILES>  (156) 
CC(C)C[C@@H](O)C(=O)c1cscn1

>  <scratch_subdir>  (156) 
['/opt/xchem-fragalysis-2/maxwin/BulkDock/SCRATCH/211013/C5789-P17']

>  <tags>  (156) 
['Fragmenstein placed']

>  <distance_score>  (156) 
0.494363

>  <original ID>  (156) 
UBWYAMJCCVYQHK-MRVPVSSYSA-N

>  <ref_mols>  (156) 
d0174a,d0615a

>  <SLURM_JOB_ID>  (156) 
211013

>  <ref_pdb>  (156) 
d0174a

$$$$
51574
     RDKit          3D

 13 13  0  0  0  0  0  0  0  0999 V2000
  -14.2677  -69.3912  -23.1489 C   0  0  0  0  0  0  0  0  0  0  0  0
  -14.8616  -69.2539  -21.7528 C   0  0  0  0  0  0  0  0  0  0  0  0
  -16.1044  -70.1276  -21.6102 C   0  0  0  0  0  0  0  0  0  0  0  0
  -13.8520  -69.4417  -20.5999 C   0  0  0  0  0  0  0  0  0  0  0  0
  -12.9981  -70.7206  -20.4891 C   0  0  1  0  0  0  0  0  0  0  0  0
  -13.6564  -71.8871  -20.9517 O   0  0  0  0  0  0  0  0  0  0  0  0
  -11.6019  -70.5517  -21.1299 C   0  0  0  0  0  0  0  0  0  0  0  0
  -11.5022  -70.1688  -22.2978 O   0  0  0  0  0  0  0  0  0  0  0  0
  -10.4063  -70.8804  -20.3335 C   0  0  0  0  0  0  0  0  0  0  0  0
  -10.3819  -71.6018  -19.1509 C   0  0  0  0  0  0  0  0  0  0  0  0
   -8.7790  -71.7394  -18.5545 S   0  0  0  0  0  0  0  0  0  0  0  0
   -8.2176  -70.8686  -19.9185 C   0  0  0  0  0  0  0  0  0  0  0  0
   -9.1418  -70.4704  -20.7613 N   0  0  0  0  0  0  0  0  0  0  0  0
  1  2  1  0
  2  3  1  0
  2  4  1  0
  4  5  1  0
  5  6  1  6
  5  7  1  0
  7  8  2  0
  7  9  1  0
  9 10  2  0
 10 11  1  0
 11 12  1  0
 12 13  2  0
 13  9  1  0
M  END
>  <SLURM_JOB_NAME>  (157) 
BulkDock.place:Flavi_NS5_RdRp:RdRp_knitwork_thumb_site_2_impure_split4000_batch000

>  <fragmenstein_error>  (157) 
['']

>  <HIPPO Compound ID>  (157) 
5789

>  <alias>  (157) 
None

>  <energy_score>  (157) 
-48.215833

>  <exports>  (157) 
['/opt/xchem-fragalysis-2/maxwin/BulkDock/OUTPUTS/RdRp_knitwork_thumb_site_2_impure_split4000_batch000_211013.sdf']

>  <fragmenstein_outcome>  (157) 
['acceptable']

>  <fragmenstein_mode>  (157) 
['expansion']

>  <HIPPO Pose ID>  (157) 
51574

>  <name>  (157) 
UBWYAMJCCVYQHK-MRVPVSSYSA-N

>  <fragmenstein_runtime>  (157) 
[1.6056065559387207]

>  <csv_name>  (157) 
RdRp_knitwork_thumb_site_2_impure_split4000_batch000.csv

>  <inchikey>  (157) 
UBWYAMJCCVYQHK-MRVPVSSYSA-N

>  <original SMILES>  (157) 
CC(C)C[C@@H](O)C(=O)c1cscn1

>  <scratch_subdir>  (157) 
['/opt/xchem-fragalysis-2/maxwin/BulkDock/SCRATCH/211013/C5789-P50']

>  <tags>  (157) 
['Fragmenstein placed']

>  <distance_score>  (157) 
0.428468

>  <original ID>  (157) 
UBWYAMJCCVYQHK-MRVPVSSYSA-N

>  <ref_mols>  (157) 
d0174a,d0615a

>  <SLURM_JOB_ID>  (157) 
211013

>  <ref_pdb>  (157) 
d0615a

$$$$
51581
     RDKit          3D

 12 12  0  0  0  0  0  0  0  0999 V2000
  -14.8775  -70.4070  -21.5601 C   0  0  0  0  0  0  0  0  0  0  0  0
  -14.0271  -70.0089  -20.3604 C   0  0  0  0  0  0  0  0  0  0  0  0
  -13.6903  -68.5342  -20.4398 C   0  0  0  0  0  0  0  0  0  0  0  0
  -14.8082  -70.1697  -19.2358 F   0  0  0  0  0  0  0  0  0  0  0  0
  -12.8084  -70.9124  -20.1340 C   0  0  0  0  0  0  0  0  0  0  0  0
  -11.5346  -70.5302  -20.8861 C   0  0  2  0  0  0  0  0  0  0  0  0
  -11.6803  -70.7891  -22.2791 O   0  0  0  0  0  0  0  0  0  0  0  0
  -10.2753  -71.1434  -20.3304 C   0  0  0  0  0  0  0  0  0  0  0  0
  -10.1289  -71.9730  -19.2331 C   0  0  0  0  0  0  0  0  0  0  0  0
   -8.4698  -72.2401  -18.9052 S   0  0  0  0  0  0  0  0  0  0  0  0
   -8.0664  -71.2983  -20.2797 C   0  0  0  0  0  0  0  0  0  0  0  0
   -9.0792  -70.7895  -20.9466 N   0  0  0  0  0  0  0  0  0  0  0  0
  1  2  1  0
  2  3  1  0
  2  4  1  0
  2  5  1  0
  5  6  1  0
  6  7  1  6
  6  8  1  0
  8  9  2  0
  9 10  1  0
 10 11  1  0
 11 12  2  0
 12  8  1  0
M  END
>  <SLURM_JOB_NAME>  (158) 
BulkDock.place:Flavi_NS5_RdRp:RdRp_knitwork_thumb_site_2_impure_split4000_batch000

>  <fragmenstein_error>  (158) 
['']

>  <HIPPO Compound ID>  (158) 
5796

>  <alias>  (158) 
None

>  <energy_score>  (158) 
-78.691898

>  <exports>  (158) 
['/opt/xchem-fragalysis-2/maxwin/BulkDock/OUTPUTS/RdRp_knitwork_thumb_site_2_impure_split4000_batch000_211013.sdf']

>  <fragmenstein_outcome>  (158) 
['acceptable']

>  <fragmenstein_mode>  (158) 
['expansion']

>  <HIPPO Pose ID>  (158) 
51581

>  <name>  (158) 
SXHDUPSFBOJHGI-ZETCQYMHSA-N

>  <fragmenstein_runtime>  (158) 
[2.264463424682617]

>  <csv_name>  (158) 
RdRp_knitwork_thumb_site_2_impure_split4000_batch000.csv

>  <inchikey>  (158) 
SXHDUPSFBOJHGI-ZETCQYMHSA-N

>  <original SMILES>  (158) 
CC(C)(F)C[C@H](O)c1cscn1

>  <scratch_subdir>  (158) 
['/opt/xchem-fragalysis-2/maxwin/BulkDock/SCRATCH/211013/C5796-P17']

>  <tags>  (158) 
['Fragmenstein placed']

>  <distance_score>  (158) 
0.633825

>  <original ID>  (158) 
SXHDUPSFBOJHGI-ZETCQYMHSA-N

>  <ref_mols>  (158) 
d0174a,d0615a

>  <SLURM_JOB_ID>  (158) 
211013

>  <ref_pdb>  (158) 
d0174a

$$$$
51584
     RDKit          3D

 12 12  0  0  0  0  0  0  0  0999 V2000
  -15.4485  -70.1574  -21.0696 C   0  0  0  0  0  0  0  0  0  0  0  0
  -14.0389  -70.0602  -20.4807 C   0  0  0  0  0  0  0  0  0  0  0  0
  -13.6452  -68.5997  -20.4442 C   0  0  0  0  0  0  0  0  0  0  0  0
  -14.1031  -70.4947  -19.1830 F   0  0  0  0  0  0  0  0  0  0  0  0
  -13.0890  -70.9842  -21.2672 C   0  0  0  0  0  0  0  0  0  0  0  0
  -11.6418  -70.5199  -21.4424 C   0  0  2  0  0  0  0  0  0  0  0  0
  -11.1827  -71.0609  -22.6909 O   0  0  0  0  0  0  0  0  0  0  0  0
  -10.6613  -70.8614  -20.3567 C   0  0  0  0  0  0  0  0  0  0  0  0
  -10.8885  -71.1697  -19.0295 C   0  0  0  0  0  0  0  0  0  0  0  0
   -9.4028  -71.4758  -18.2255 S   0  0  0  0  0  0  0  0  0  0  0  0
   -8.5637  -71.1620  -19.6877 C   0  0  0  0  0  0  0  0  0  0  0  0
   -9.3128  -70.8582  -20.7234 N   0  0  0  0  0  0  0  0  0  0  0  0
  1  2  1  0
  2  3  1  0
  2  4  1  0
  2  5  1  0
  5  6  1  0
  6  7  1  6
  6  8  1  0
  8  9  2  0
  9 10  1  0
 10 11  1  0
 11 12  2  0
 12  8  1  0
M  END
>  <SLURM_JOB_NAME>  (159) 
BulkDock.place:Flavi_NS5_RdRp:RdRp_knitwork_thumb_site_2_impure_split4000_batch000

>  <fragmenstein_error>  (159) 
['']

>  <HIPPO Compound ID>  (159) 
5796

>  <alias>  (159) 
None

>  <energy_score>  (159) 
-78.317464

>  <exports>  (159) 
['/opt/xchem-fragalysis-2/maxwin/BulkDock/OUTPUTS/RdRp_knitwork_thumb_site_2_impure_split4000_batch000_211013.sdf']

>  <fragmenstein_outcome>  (159) 
['acceptable']

>  <fragmenstein_mode>  (159) 
['expansion']

>  <HIPPO Pose ID>  (159) 
51584

>  <name>  (159) 
SXHDUPSFBOJHGI-ZETCQYMHSA-N

>  <fragmenstein_runtime>  (159) 
[2.2783939838409424]

>  <csv_name>  (159) 
RdRp_knitwork_thumb_site_2_impure_split4000_batch000.csv

>  <inchikey>  (159) 
SXHDUPSFBOJHGI-ZETCQYMHSA-N

>  <original SMILES>  (159) 
CC(C)(F)C[C@H](O)c1cscn1

>  <scratch_subdir>  (159) 
['/opt/xchem-fragalysis-2/maxwin/BulkDock/SCRATCH/211013/C5796-P50']

>  <tags>  (159) 
['Fragmenstein placed']

>  <distance_score>  (159) 
0.766018

>  <original ID>  (159) 
SXHDUPSFBOJHGI-ZETCQYMHSA-N

>  <ref_mols>  (159) 
d0174a,d0615a

>  <SLURM_JOB_ID>  (159) 
211013

>  <ref_pdb>  (159) 
d0615a

$$$$
51597
     RDKit          3D

 20 20  0  0  0  0  0  0  0  0999 V2000
  -13.0126  -73.5984  -19.2893 C   0  0  0  0  0  0  0  0  0  0  0  0
  -12.2010  -73.5414  -20.5793 C   0  0  0  0  0  0  0  0  0  0  0  0
  -12.3074  -74.8874  -21.3055 C   0  0  0  0  0  0  0  0  0  0  0  0
  -12.6986  -72.4165  -21.4999 C   0  0  0  0  0  0  0  0  0  0  0  0
  -12.5454  -71.0170  -21.0474 N   0  0  0  0  0  0  0  0  0  0  0  0
  -13.5888  -70.1118  -20.9640 C   0  0  0  0  0  0  0  0  0  0  0  0
  -13.4617  -68.9496  -20.5961 O   0  0  0  0  0  0  0  0  0  0  0  0
  -14.8016  -70.6489  -21.2345 O   0  0  0  0  0  0  0  0  0  0  0  0
  -15.3172  -70.2661  -22.5366 C   0  0  0  0  0  0  0  0  0  0  0  0
  -16.7565  -70.7828  -22.5805 C   0  0  0  0  0  0  0  0  0  0  0  0
  -14.5506  -70.9128  -23.7029 C   0  0  0  0  0  0  0  0  0  0  0  0
  -15.3311  -68.7592  -22.7294 C   0  0  0  0  0  0  0  0  0  0  0  0
  -11.2241  -70.4022  -20.8685 C   0  0  2  0  0  0  0  0  0  0  0  0
  -10.6242  -70.3123  -22.2209 C   0  0  0  0  0  0  0  0  0  0  0  0
  -10.2084  -70.2772  -23.3043 N   0  0  0  0  0  0  0  0  0  0  0  0
  -10.3076  -71.0151  -19.8456 C   0  0  0  0  0  0  0  0  0  0  0  0
  -10.6801  -71.4778  -18.6646 N   0  0  0  0  0  0  0  0  0  0  0  0
   -9.5791  -71.8846  -17.9390 C   0  0  0  0  0  0  0  0  0  0  0  0
   -8.3615  -71.6838  -18.5450 C   0  0  0  0  0  0  0  0  0  0  0  0
   -8.5899  -70.9915  -20.0839 S   0  0  0  0  0  0  0  0  0  0  0  0
  1  2  1  0
  2  3  1  0
  2  4  1  0
  4  5  1  0
  5  6  1  0
  6  7  2  0
  6  8  1  0
  8  9  1  0
  9 10  1  0
  9 11  1  0
  9 12  1  0
  5 13  1  0
 13 14  1  6
 14 15  3  0
 13 16  1  0
 16 17  2  0
 17 18  1  0
 18 19  2  0
 19 20  1  0
 20 16  1  0
M  END
>  <SLURM_JOB_NAME>  (160) 
BulkDock.place:Flavi_NS5_RdRp:RdRp_knitwork_thumb_site_2_impure_split4000_batch000

>  <fragmenstein_error>  (160) 
['']

>  <HIPPO Compound ID>  (160) 
5834

>  <alias>  (160) 
None

>  <energy_score>  (160) 
-93.328653

>  <exports>  (160) 
['/opt/xchem-fragalysis-2/maxwin/BulkDock/OUTPUTS/RdRp_knitwork_thumb_site_2_impure_split4000_batch000_211013.sdf']

>  <fragmenstein_outcome>  (160) 
['acceptable']

>  <fragmenstein_mode>  (160) 
['expansion']

>  <HIPPO Pose ID>  (160) 
51597

>  <name>  (160) 
PQTVEJOHYINQPP-LLVKDONJSA-N

>  <fragmenstein_runtime>  (160) 
[86.92389988899231]

>  <csv_name>  (160) 
RdRp_knitwork_thumb_site_2_impure_split4000_batch000.csv

>  <inchikey>  (160) 
PQTVEJOHYINQPP-LLVKDONJSA-N

>  <original SMILES>  (160) 
CC(C)CN(C(=O)OC(C)(C)C)[C@H](C#N)c1nccs1

>  <scratch_subdir>  (160) 
['/opt/xchem-fragalysis-2/maxwin/BulkDock/SCRATCH/211013/C5834-P17']

>  <tags>  (160) 
['Fragmenstein placed']

>  <distance_score>  (160) 
0.952763

>  <original ID>  (160) 
PQTVEJOHYINQPP-LLVKDONJSA-N

>  <ref_mols>  (160) 
d0174a,d0615a

>  <SLURM_JOB_ID>  (160) 
211013

>  <ref_pdb>  (160) 
d0174a

$$$$
51635
     RDKit          3D

 11 11  0  0  0  0  0  0  0  0999 V2000
  -14.8540  -69.2424  -20.8975 C   0  0  0  0  0  0  0  0  0  0  0  0
  -13.8191  -69.8603  -20.1345 O   0  0  0  0  0  0  0  0  0  0  0  0
  -13.4362  -71.1364  -20.6602 C   0  0  0  0  0  0  0  0  0  0  0  0
  -12.0538  -71.1416  -21.3611 C   0  0  2  0  0  0  0  0  0  0  0  0
  -12.0453  -70.1644  -22.5340 C   0  0  0  0  0  0  0  0  0  0  0  0
  -11.8964  -72.4615  -21.9154 O   0  0  0  0  0  0  0  0  0  0  0  0
  -10.8901  -70.9702  -20.4060 C   0  0  0  0  0  0  0  0  0  0  0  0
  -10.8506  -71.0045  -19.0207 C   0  0  0  0  0  0  0  0  0  0  0  0
   -9.5975  -70.9570  -18.4337 N   0  0  0  0  0  0  0  0  0  0  0  0
   -8.6887  -70.8608  -19.3773 C   0  0  0  0  0  0  0  0  0  0  0  0
   -9.2695  -70.8151  -20.9833 S   0  0  0  0  0  0  0  0  0  0  0  0
  1  2  1  0
  2  3  1  0
  3  4  1  0
  4  5  1  6
  4  6  1  0
  4  7  1  0
  7  8  2  0
  8  9  1  0
  9 10  2  0
 10 11  1  0
 11  7  1  0
M  END
>  <SLURM_JOB_NAME>  (161) 
BulkDock.place:Flavi_NS5_RdRp:RdRp_knitwork_thumb_site_2_impure_split4000_batch000

>  <fragmenstein_error>  (161) 
['']

>  <HIPPO Compound ID>  (161) 
5836

>  <alias>  (161) 
None

>  <energy_score>  (161) 
-83.457815

>  <exports>  (161) 
['/opt/xchem-fragalysis-2/maxwin/BulkDock/OUTPUTS/RdRp_knitwork_thumb_site_2_impure_split4000_batch000_211013.sdf']

>  <fragmenstein_outcome>  (161) 
['acceptable']

>  <fragmenstein_mode>  (161) 
['expansion']

>  <HIPPO Pose ID>  (161) 
51635

>  <name>  (161) 
GAAHOOWUYYJGHP-ZETCQYMHSA-N

>  <fragmenstein_runtime>  (161) 
[1.2505478858947754]

>  <csv_name>  (161) 
RdRp_knitwork_thumb_site_2_impure_split4000_batch000.csv

>  <inchikey>  (161) 
GAAHOOWUYYJGHP-ZETCQYMHSA-N

>  <original SMILES>  (161) 
COC[C@](C)(O)c1cncs1

>  <scratch_subdir>  (161) 
['/opt/xchem-fragalysis-2/maxwin/BulkDock/SCRATCH/211013/C5836-P17']

>  <tags>  (161) 
['Fragmenstein placed']

>  <distance_score>  (161) 
0.707158

>  <original ID>  (161) 
GAAHOOWUYYJGHP-ZETCQYMHSA-N

>  <ref_mols>  (161) 
d0174a,d0615a

>  <SLURM_JOB_ID>  (161) 
211013

>  <ref_pdb>  (161) 
d0174a

$$$$
51636
     RDKit          3D

 11 11  0  0  0  0  0  0  0  0999 V2000
  -14.8899  -69.1321  -20.9406 C   0  0  0  0  0  0  0  0  0  0  0  0
  -13.7578  -69.6302  -20.2310 O   0  0  0  0  0  0  0  0  0  0  0  0
  -13.4349  -70.9752  -20.6006 C   0  0  0  0  0  0  0  0  0  0  0  0
  -12.0642  -71.0915  -21.3115 C   0  0  2  0  0  0  0  0  0  0  0  0
  -12.0377  -70.1875  -22.5445 C   0  0  0  0  0  0  0  0  0  0  0  0
  -11.9642  -72.4499  -21.7806 O   0  0  0  0  0  0  0  0  0  0  0  0
  -10.8805  -70.9090  -20.3822 C   0  0  0  0  0  0  0  0  0  0  0  0
  -10.8182  -70.9112  -18.9969 C   0  0  0  0  0  0  0  0  0  0  0  0
   -9.5534  -70.8748  -18.4328 N   0  0  0  0  0  0  0  0  0  0  0  0
   -8.6605  -70.8031  -19.3933 C   0  0  0  0  0  0  0  0  0  0  0  0
   -9.2677  -70.7893  -20.9899 S   0  0  0  0  0  0  0  0  0  0  0  0
  1  2  1  0
  2  3  1  0
  3  4  1  0
  4  5  1  6
  4  6  1  0
  4  7  1  0
  7  8  2  0
  8  9  1  0
  9 10  2  0
 10 11  1  0
 11  7  1  0
M  END
>  <SLURM_JOB_NAME>  (162) 
BulkDock.place:Flavi_NS5_RdRp:RdRp_knitwork_thumb_site_2_impure_split4000_batch000

>  <fragmenstein_error>  (162) 
['']

>  <HIPPO Compound ID>  (162) 
5836

>  <alias>  (162) 
None

>  <energy_score>  (162) 
-83.419706

>  <exports>  (162) 
['/opt/xchem-fragalysis-2/maxwin/BulkDock/OUTPUTS/RdRp_knitwork_thumb_site_2_impure_split4000_batch000_211013.sdf']

>  <fragmenstein_outcome>  (162) 
['acceptable']

>  <fragmenstein_mode>  (162) 
['expansion']

>  <HIPPO Pose ID>  (162) 
51636

>  <name>  (162) 
GAAHOOWUYYJGHP-ZETCQYMHSA-N

>  <fragmenstein_runtime>  (162) 
[1.08915376663208]

>  <csv_name>  (162) 
RdRp_knitwork_thumb_site_2_impure_split4000_batch000.csv

>  <inchikey>  (162) 
GAAHOOWUYYJGHP-ZETCQYMHSA-N

>  <original SMILES>  (162) 
COC[C@](C)(O)c1cncs1

>  <scratch_subdir>  (162) 
['/opt/xchem-fragalysis-2/maxwin/BulkDock/SCRATCH/211013/C5836-P50']

>  <tags>  (162) 
['Fragmenstein placed']

>  <distance_score>  (162) 
0.707186

>  <original ID>  (162) 
GAAHOOWUYYJGHP-ZETCQYMHSA-N

>  <ref_mols>  (162) 
d0174a,d0615a

>  <SLURM_JOB_ID>  (162) 
211013

>  <ref_pdb>  (162) 
d0615a

$$$$
51646
     RDKit          3D

 15 15  0  0  0  0  0  0  0  0999 V2000
  -10.1015  -70.9749  -19.0804 C   0  0  0  0  0  0  0  0  0  0  0  0
  -10.2876  -71.3850  -20.3444 C   0  0  0  0  0  0  0  0  0  0  0  0
  -11.5923  -71.4563  -21.1224 C   0  0  2  0  0  0  0  0  0  0  0  0
  -11.7965  -72.9261  -21.5574 C   0  0  0  0  0  0  0  0  0  0  0  0
  -11.5712  -70.5477  -22.3709 C   0  0  0  0  0  0  0  0  0  0  0  0
  -10.4024  -70.7638  -23.3296 C   0  0  0  0  0  0  0  0  0  0  0  0
  -12.6772  -71.1673  -20.1642 N   0  0  0  0  0  0  0  0  0  0  0  0
  -13.7503  -69.9019  -20.2078 S   0  0  0  0  0  0  0  0  0  0  0  0
  -14.5873  -70.0635  -19.0337 O   0  0  0  0  0  0  0  0  0  0  0  0
  -13.0770  -68.6577  -20.4839 O   0  0  0  0  0  0  0  0  0  0  0  0
  -14.8294  -70.1640  -21.5545 C   0  0  0  0  0  0  0  0  0  0  0  0
  -15.2561  -69.1683  -22.4098 C   0  0  0  0  0  0  0  0  0  0  0  0
  -16.2550  -69.8486  -23.6298 S   0  0  0  0  0  0  0  0  0  0  0  0
  -16.0030  -71.4007  -22.9554 C   0  0  0  0  0  0  0  0  0  0  0  0
  -15.2473  -71.4569  -21.8838 N   0  0  0  0  0  0  0  0  0  0  0  0
  1  2  2  0
  2  3  1  0
  3  4  1  6
  3  5  1  0
  5  6  1  0
  3  7  1  0
  7  8  1  0
  8  9  2  0
  8 10  2  0
  8 11  1  0
 11 12  2  0
 12 13  1  0
 13 14  1  0
 14 15  2  0
 15 11  1  0
M  END
>  <SLURM_JOB_NAME>  (163) 
BulkDock.place:Flavi_NS5_RdRp:RdRp_knitwork_thumb_site_2_impure_split4000_batch000

>  <fragmenstein_error>  (163) 
['']

>  <HIPPO Compound ID>  (163) 
5850

>  <alias>  (163) 
None

>  <energy_score>  (163) 
-117.765719

>  <exports>  (163) 
['/opt/xchem-fragalysis-2/maxwin/BulkDock/OUTPUTS/RdRp_knitwork_thumb_site_2_impure_split4000_batch000_211013.sdf']

>  <fragmenstein_outcome>  (163) 
['acceptable']

>  <fragmenstein_mode>  (163) 
['expansion']

>  <HIPPO Pose ID>  (163) 
51646

>  <name>  (163) 
CRCWHWXTZMWLKL-SECBINFHSA-N

>  <fragmenstein_runtime>  (163) 
[1.9881682395935059]

>  <csv_name>  (163) 
RdRp_knitwork_thumb_site_2_impure_split4000_batch000.csv

>  <inchikey>  (163) 
CRCWHWXTZMWLKL-SECBINFHSA-N

>  <original SMILES>  (163) 
C=C[C@](C)(CC)NS(=O)(=O)c1cscn1

>  <scratch_subdir>  (163) 
['/opt/xchem-fragalysis-2/maxwin/BulkDock/SCRATCH/211013/C5850-P17']

>  <tags>  (163) 
['Fragmenstein placed']

>  <distance_score>  (163) 
0.829989

>  <original ID>  (163) 
CRCWHWXTZMWLKL-SECBINFHSA-N

>  <ref_mols>  (163) 
d0174a,d0615a

>  <SLURM_JOB_ID>  (163) 
211013

>  <ref_pdb>  (163) 
d0174a

$$$$
51647
     RDKit          3D

 15 15  0  0  0  0  0  0  0  0999 V2000
   -9.6307  -71.3586  -19.2187 C   0  0  0  0  0  0  0  0  0  0  0  0
  -10.3498  -70.7325  -20.1621 C   0  0  0  0  0  0  0  0  0  0  0  0
  -11.4727  -71.3200  -20.9917 C   0  0  2  0  0  0  0  0  0  0  0  0
  -11.3106  -72.8454  -21.2035 C   0  0  0  0  0  0  0  0  0  0  0  0
  -11.6031  -70.6406  -22.3757 C   0  0  0  0  0  0  0  0  0  0  0  0
  -10.3678  -70.7738  -23.2639 C   0  0  0  0  0  0  0  0  0  0  0  0
  -12.6591  -71.1839  -20.1269 N   0  0  0  0  0  0  0  0  0  0  0  0
  -13.7213  -69.9024  -20.1419 S   0  0  0  0  0  0  0  0  0  0  0  0
  -14.5453  -70.0636  -18.9602 O   0  0  0  0  0  0  0  0  0  0  0  0
  -13.0207  -68.6707  -20.4092 O   0  0  0  0  0  0  0  0  0  0  0  0
  -14.8049  -70.1379  -21.4877 C   0  0  0  0  0  0  0  0  0  0  0  0
  -15.3179  -69.1183  -22.2629 C   0  0  0  0  0  0  0  0  0  0  0  0
  -16.2858  -69.7842  -23.5167 S   0  0  0  0  0  0  0  0  0  0  0  0
  -15.9035  -71.3546  -22.9639 C   0  0  0  0  0  0  0  0  0  0  0  0
  -15.1418  -71.4302  -21.9002 N   0  0  0  0  0  0  0  0  0  0  0  0
  1  2  2  0
  2  3  1  0
  3  4  1  6
  3  5  1  0
  5  6  1  0
  3  7  1  0
  7  8  1  0
  8  9  2  0
  8 10  2  0
  8 11  1  0
 11 12  2  0
 12 13  1  0
 13 14  1  0
 14 15  2  0
 15 11  1  0
M  END
>  <SLURM_JOB_NAME>  (164) 
BulkDock.place:Flavi_NS5_RdRp:RdRp_knitwork_thumb_site_2_impure_split4000_batch000

>  <fragmenstein_error>  (164) 
['']

>  <HIPPO Compound ID>  (164) 
5850

>  <alias>  (164) 
None

>  <energy_score>  (164) 
-118.490302

>  <exports>  (164) 
['/opt/xchem-fragalysis-2/maxwin/BulkDock/OUTPUTS/RdRp_knitwork_thumb_site_2_impure_split4000_batch000_211013.sdf']

>  <fragmenstein_outcome>  (164) 
['acceptable']

>  <fragmenstein_mode>  (164) 
['expansion']

>  <HIPPO Pose ID>  (164) 
51647

>  <name>  (164) 
CRCWHWXTZMWLKL-SECBINFHSA-N

>  <fragmenstein_runtime>  (164) 
[2.268122673034668]

>  <csv_name>  (164) 
RdRp_knitwork_thumb_site_2_impure_split4000_batch000.csv

>  <inchikey>  (164) 
CRCWHWXTZMWLKL-SECBINFHSA-N

>  <original SMILES>  (164) 
C=C[C@](C)(CC)NS(=O)(=O)c1cscn1

>  <scratch_subdir>  (164) 
['/opt/xchem-fragalysis-2/maxwin/BulkDock/SCRATCH/211013/C5850-P50']

>  <tags>  (164) 
['Fragmenstein placed']

>  <distance_score>  (164) 
0.844501

>  <original ID>  (164) 
CRCWHWXTZMWLKL-SECBINFHSA-N

>  <ref_mols>  (164) 
d0174a,d0615a

>  <SLURM_JOB_ID>  (164) 
211013

>  <ref_pdb>  (164) 
d0615a

$$$$
51648
     RDKit          3D

 18 18  0  0  0  0  0  0  0  0999 V2000
  -11.5761  -70.3421  -22.6155 C   0  0  0  0  0  0  0  0  0  0  0  0
  -11.6951  -71.2256  -21.3894 C   0  0  2  0  0  0  0  0  0  0  0  0
  -13.0402  -71.1904  -20.7529 N   0  0  0  0  0  0  0  0  0  0  0  0
  -13.7324  -69.7429  -20.2884 S   0  0  0  0  0  0  0  0  0  0  0  0
  -12.6844  -68.7782  -20.0700 O   0  0  0  0  0  0  0  0  0  0  0  0
  -14.6388  -70.0986  -19.2143 O   0  0  0  0  0  0  0  0  0  0  0  0
  -14.6929  -69.2240  -21.7161 C   0  0  0  0  0  0  0  0  0  0  0  0
  -15.0924  -70.3408  -22.6883 C   0  0  1  0  0  0  0  0  0  0  0  0
  -16.2923  -71.1113  -22.1712 C   0  0  0  0  0  0  0  0  0  0  0  0
  -15.3687  -69.7557  -24.0601 C   0  0  0  0  0  0  0  0  0  0  0  0
  -15.6171  -70.7579  -25.1596 C   0  0  0  0  0  0  0  0  0  0  0  0
  -14.2818  -69.0301  -24.4256 F   0  0  0  0  0  0  0  0  0  0  0  0
  -16.4333  -68.9193  -23.9914 F   0  0  0  0  0  0  0  0  0  0  0  0
  -10.6271  -71.1104  -20.3241 C   0  0  0  0  0  0  0  0  0  0  0  0
  -10.7879  -71.5931  -19.1018 N   0  0  0  0  0  0  0  0  0  0  0  0
   -9.6015  -71.5010  -18.4026 C   0  0  0  0  0  0  0  0  0  0  0  0
   -8.5425  -70.9654  -19.0992 C   0  0  0  0  0  0  0  0  0  0  0  0
   -9.0481  -70.5242  -20.6705 S   0  0  0  0  0  0  0  0  0  0  0  0
  2  1  1  6
  2  3  1  0
  3  4  1  0
  4  5  2  0
  4  6  2  0
  4  7  1  0
  7  8  1  0
  8  9  1  1
  8 10  1  0
 10 11  1  0
 10 12  1  0
 10 13  1  0
  2 14  1  0
 14 15  2  0
 15 16  1  0
 16 17  2  0
 17 18  1  0
 18 14  1  0
M  END
>  <SLURM_JOB_NAME>  (165) 
BulkDock.place:Flavi_NS5_RdRp:RdRp_knitwork_thumb_site_2_impure_split4000_batch000

>  <fragmenstein_error>  (165) 
['']

>  <HIPPO Compound ID>  (165) 
5927

>  <alias>  (165) 
None

>  <energy_score>  (165) 
-90.708089

>  <exports>  (165) 
['/opt/xchem-fragalysis-2/maxwin/BulkDock/OUTPUTS/RdRp_knitwork_thumb_site_2_impure_split4000_batch000_211013.sdf']

>  <fragmenstein_outcome>  (165) 
['acceptable']

>  <fragmenstein_mode>  (165) 
['expansion']

>  <HIPPO Pose ID>  (165) 
51648

>  <name>  (165) 
MAVCNBRDNQKOQG-SFYZADRCSA-N

>  <fragmenstein_runtime>  (165) 
[2.5174944400787354]

>  <csv_name>  (165) 
RdRp_knitwork_thumb_site_2_impure_split4000_batch000.csv

>  <inchikey>  (165) 
MAVCNBRDNQKOQG-SFYZADRCSA-N

>  <original SMILES>  (165) 
C[C@H](NS(=O)(=O)C[C@@H](C)C(C)(F)F)c1nccs1

>  <scratch_subdir>  (165) 
['/opt/xchem-fragalysis-2/maxwin/BulkDock/SCRATCH/211013/C5927-P17']

>  <tags>  (165) 
['Fragmenstein placed']

>  <distance_score>  (165) 
0.592396

>  <original ID>  (165) 
MAVCNBRDNQKOQG-SFYZADRCSA-N

>  <ref_mols>  (165) 
d0174a,d0615a

>  <SLURM_JOB_ID>  (165) 
211013

>  <ref_pdb>  (165) 
d0174a

$$$$
51653
     RDKit          3D

 18 18  0  0  0  0  0  0  0  0999 V2000
  -11.6064  -70.3723  -22.5629 C   0  0  0  0  0  0  0  0  0  0  0  0
  -11.6691  -71.1848  -21.2859 C   0  0  2  0  0  0  0  0  0  0  0  0
  -12.9889  -71.2314  -20.5994 N   0  0  0  0  0  0  0  0  0  0  0  0
  -13.9020  -69.8802  -20.2815 S   0  0  0  0  0  0  0  0  0  0  0  0
  -13.1764  -68.6961  -20.6616 O   0  0  0  0  0  0  0  0  0  0  0  0
  -14.3523  -70.0730  -18.9149 O   0  0  0  0  0  0  0  0  0  0  0  0
  -15.3426  -70.0768  -21.3351 C   0  0  0  0  0  0  0  0  0  0  0  0
  -15.1071  -70.3988  -22.8167 C   0  0  1  0  0  0  0  0  0  0  0  0
  -14.7459  -71.8749  -23.0588 C   0  0  0  0  0  0  0  0  0  0  0  0
  -16.4073  -70.1354  -23.5937 C   0  0  0  0  0  0  0  0  0  0  0  0
  -16.3067  -70.3385  -25.0930 C   0  0  0  0  0  0  0  0  0  0  0  0
  -16.8391  -68.8743  -23.3751 F   0  0  0  0  0  0  0  0  0  0  0  0
  -17.3889  -70.9464  -23.1173 F   0  0  0  0  0  0  0  0  0  0  0  0
  -10.5806  -70.9866  -20.2576 C   0  0  0  0  0  0  0  0  0  0  0  0
  -10.7037  -71.4146  -19.0109 N   0  0  0  0  0  0  0  0  0  0  0  0
   -9.4896  -71.3216  -18.3625 C   0  0  0  0  0  0  0  0  0  0  0  0
   -8.4502  -70.8300  -19.1190 C   0  0  0  0  0  0  0  0  0  0  0  0
   -9.0125  -70.4240  -20.6808 S   0  0  0  0  0  0  0  0  0  0  0  0
  2  1  1  6
  2  3  1  0
  3  4  1  0
  4  5  2  0
  4  6  2  0
  4  7  1  0
  7  8  1  0
  8  9  1  1
  8 10  1  0
 10 11  1  0
 10 12  1  0
 10 13  1  0
  2 14  1  0
 14 15  2  0
 15 16  1  0
 16 17  2  0
 17 18  1  0
 18 14  1  0
M  END
>  <SLURM_JOB_NAME>  (166) 
BulkDock.place:Flavi_NS5_RdRp:RdRp_knitwork_thumb_site_2_impure_split4000_batch000

>  <fragmenstein_error>  (166) 
['']

>  <HIPPO Compound ID>  (166) 
5927

>  <alias>  (166) 
None

>  <energy_score>  (166) 
-84.885968

>  <exports>  (166) 
['/opt/xchem-fragalysis-2/maxwin/BulkDock/OUTPUTS/RdRp_knitwork_thumb_site_2_impure_split4000_batch000_211013.sdf']

>  <fragmenstein_outcome>  (166) 
['acceptable']

>  <fragmenstein_mode>  (166) 
['expansion']

>  <HIPPO Pose ID>  (166) 
51653

>  <name>  (166) 
MAVCNBRDNQKOQG-SFYZADRCSA-N

>  <fragmenstein_runtime>  (166) 
[2.592515468597412]

>  <csv_name>  (166) 
RdRp_knitwork_thumb_site_2_impure_split4000_batch000.csv

>  <inchikey>  (166) 
MAVCNBRDNQKOQG-SFYZADRCSA-N

>  <original SMILES>  (166) 
C[C@H](NS(=O)(=O)C[C@@H](C)C(C)(F)F)c1nccs1

>  <scratch_subdir>  (166) 
['/opt/xchem-fragalysis-2/maxwin/BulkDock/SCRATCH/211013/C5927-P50']

>  <tags>  (166) 
['Fragmenstein placed']

>  <distance_score>  (166) 
0.820009

>  <original ID>  (166) 
MAVCNBRDNQKOQG-SFYZADRCSA-N

>  <ref_mols>  (166) 
d0174a,d0615a

>  <SLURM_JOB_ID>  (166) 
211013

>  <ref_pdb>  (166) 
d0615a

$$$$
51656
     RDKit          3D

 14 14  0  0  0  0  0  0  0  0999 V2000
  -14.5436  -69.7732  -23.2285 C   0  0  0  0  0  0  0  0  0  0  0  0
  -15.1083  -69.8971  -21.9334 O   0  0  0  0  0  0  0  0  0  0  0  0
  -14.2674  -69.6871  -20.7833 C   0  0  0  0  0  0  0  0  0  0  0  0
  -13.5235  -68.3720  -20.8322 C   0  0  0  0  0  0  0  0  0  0  0  0
  -15.2937  -69.5446  -19.6443 C   0  0  0  0  0  0  0  0  0  0  0  0
  -13.3018  -70.8739  -20.4895 C   0  0  1  0  0  0  0  0  0  0  0  0
  -13.9475  -72.1152  -20.7416 O   0  0  0  0  0  0  0  0  0  0  0  0
  -11.9141  -70.7542  -21.1792 C   0  0  0  0  0  0  0  0  0  0  0  0
  -11.8223  -70.4873  -22.3784 O   0  0  0  0  0  0  0  0  0  0  0  0
  -10.7468  -70.9641  -20.3366 C   0  0  0  0  0  0  0  0  0  0  0  0
  -10.6146  -71.5417  -19.0872 C   0  0  0  0  0  0  0  0  0  0  0  0
   -9.3406  -71.5413  -18.5475 N   0  0  0  0  0  0  0  0  0  0  0  0
   -8.5079  -71.0154  -19.4194 C   0  0  0  0  0  0  0  0  0  0  0  0
   -9.1973  -70.4652  -20.8851 S   0  0  0  0  0  0  0  0  0  0  0  0
  1  2  1  0
  2  3  1  0
  3  4  1  0
  3  5  1  0
  3  6  1  0
  6  7  1  6
  6  8  1  0
  8  9  2  0
  8 10  1  0
 10 11  2  0
 11 12  1  0
 12 13  2  0
 13 14  1  0
 14 10  1  0
M  END
>  <SLURM_JOB_NAME>  (167) 
BulkDock.place:Flavi_NS5_RdRp:RdRp_knitwork_thumb_site_2_impure_split4000_batch000

>  <fragmenstein_error>  (167) 
['']

>  <HIPPO Compound ID>  (167) 
5931

>  <alias>  (167) 
None

>  <energy_score>  (167) 
-74.323954

>  <exports>  (167) 
['/opt/xchem-fragalysis-2/maxwin/BulkDock/OUTPUTS/RdRp_knitwork_thumb_site_2_impure_split4000_batch000_211013.sdf']

>  <fragmenstein_outcome>  (167) 
['acceptable']

>  <fragmenstein_mode>  (167) 
['expansion']

>  <HIPPO Pose ID>  (167) 
51656

>  <name>  (167) 
SEOPFBSBFPXZTF-QMMMGPOBSA-N

>  <fragmenstein_runtime>  (167) 
[1.4975550174713135]

>  <csv_name>  (167) 
RdRp_knitwork_thumb_site_2_impure_split4000_batch000.csv

>  <inchikey>  (167) 
SEOPFBSBFPXZTF-QMMMGPOBSA-N

>  <original SMILES>  (167) 
COC(C)(C)[C@@H](O)C(=O)c1cncs1

>  <scratch_subdir>  (167) 
['/opt/xchem-fragalysis-2/maxwin/BulkDock/SCRATCH/211013/C5931-P17']

>  <tags>  (167) 
['Fragmenstein placed']

>  <distance_score>  (167) 
0.583364

>  <original ID>  (167) 
SEOPFBSBFPXZTF-QMMMGPOBSA-N

>  <ref_mols>  (167) 
d0174a,d0615a

>  <SLURM_JOB_ID>  (167) 
211013

>  <ref_pdb>  (167) 
d0174a

$$$$
51660
     RDKit          3D

 14 14  0  0  0  0  0  0  0  0999 V2000
  -14.4436  -69.6125  -23.2310 C   0  0  0  0  0  0  0  0  0  0  0  0
  -15.0168  -69.8754  -21.9604 O   0  0  0  0  0  0  0  0  0  0  0  0
  -14.1888  -69.7758  -20.7845 C   0  0  0  0  0  0  0  0  0  0  0  0
  -13.4257  -68.4758  -20.7091 C   0  0  0  0  0  0  0  0  0  0  0  0
  -15.2293  -69.7171  -19.6571 C   0  0  0  0  0  0  0  0  0  0  0  0
  -13.2563  -71.0064  -20.5818 C   0  0  1  0  0  0  0  0  0  0  0  0
  -13.9136  -72.1974  -21.0033 O   0  0  0  0  0  0  0  0  0  0  0  0
  -11.8521  -70.8262  -21.2197 C   0  0  0  0  0  0  0  0  0  0  0  0
  -11.7395  -70.5663  -22.4191 O   0  0  0  0  0  0  0  0  0  0  0  0
  -10.6996  -70.9669  -20.3415 C   0  0  0  0  0  0  0  0  0  0  0  0
  -10.5725  -71.4978  -19.0707 C   0  0  0  0  0  0  0  0  0  0  0  0
   -9.3071  -71.4519  -18.5131 N   0  0  0  0  0  0  0  0  0  0  0  0
   -8.4742  -70.9282  -19.3859 C   0  0  0  0  0  0  0  0  0  0  0  0
   -9.1538  -70.4359  -20.8759 S   0  0  0  0  0  0  0  0  0  0  0  0
  1  2  1  0
  2  3  1  0
  3  4  1  0
  3  5  1  0
  3  6  1  0
  6  7  1  6
  6  8  1  0
  8  9  2  0
  8 10  1  0
 10 11  2  0
 11 12  1  0
 12 13  2  0
 13 14  1  0
 14 10  1  0
M  END
>  <SLURM_JOB_NAME>  (168) 
BulkDock.place:Flavi_NS5_RdRp:RdRp_knitwork_thumb_site_2_impure_split4000_batch000

>  <fragmenstein_error>  (168) 
['']

>  <HIPPO Compound ID>  (168) 
5931

>  <alias>  (168) 
None

>  <energy_score>  (168) 
-75.112526

>  <exports>  (168) 
['/opt/xchem-fragalysis-2/maxwin/BulkDock/OUTPUTS/RdRp_knitwork_thumb_site_2_impure_split4000_batch000_211013.sdf']

>  <fragmenstein_outcome>  (168) 
['acceptable']

>  <fragmenstein_mode>  (168) 
['expansion']

>  <HIPPO Pose ID>  (168) 
51660

>  <name>  (168) 
SEOPFBSBFPXZTF-QMMMGPOBSA-N

>  <fragmenstein_runtime>  (168) 
[1.5658068656921387]

>  <csv_name>  (168) 
RdRp_knitwork_thumb_site_2_impure_split4000_batch000.csv

>  <inchikey>  (168) 
SEOPFBSBFPXZTF-QMMMGPOBSA-N

>  <original SMILES>  (168) 
COC(C)(C)[C@@H](O)C(=O)c1cncs1

>  <scratch_subdir>  (168) 
['/opt/xchem-fragalysis-2/maxwin/BulkDock/SCRATCH/211013/C5931-P50']

>  <tags>  (168) 
['Fragmenstein placed']

>  <distance_score>  (168) 
0.569303

>  <original ID>  (168) 
SEOPFBSBFPXZTF-QMMMGPOBSA-N

>  <ref_mols>  (168) 
d0174a,d0615a

>  <SLURM_JOB_ID>  (168) 
211013

>  <ref_pdb>  (168) 
d0615a

$$$$
51672
     RDKit          3D

 12 12  0  0  0  0  0  0  0  0999 V2000
  -14.9516  -69.3117  -21.3846 C   0  0  0  0  0  0  0  0  0  0  0  0
  -13.6384  -69.2241  -20.6310 C   0  0  0  0  0  0  0  0  0  0  0  0
  -13.1204  -70.5971  -20.2737 C   0  0  0  0  0  0  0  0  0  0  0  0
  -13.6296  -71.1955  -19.3129 O   0  0  0  0  0  0  0  0  0  0  0  0
  -11.9721  -71.2345  -21.0987 C   0  0  2  0  0  0  0  0  0  0  0  0
  -11.9242  -70.7614  -22.5487 C   0  0  0  0  0  0  0  0  0  0  0  0
  -12.2517  -72.6434  -21.1591 O   0  0  0  0  0  0  0  0  0  0  0  0
  -10.6768  -71.1099  -20.3274 C   0  0  0  0  0  0  0  0  0  0  0  0
  -10.4384  -71.3888  -18.9885 C   0  0  0  0  0  0  0  0  0  0  0  0
   -9.1367  -71.2485  -18.5493 N   0  0  0  0  0  0  0  0  0  0  0  0
   -8.3801  -70.8847  -19.5611 C   0  0  0  0  0  0  0  0  0  0  0  0
   -9.1836  -70.6430  -21.0510 S   0  0  0  0  0  0  0  0  0  0  0  0
  1  2  1  0
  2  3  1  0
  3  4  2  0
  3  5  1  0
  5  6  1  6
  5  7  1  0
  5  8  1  0
  8  9  2  0
  9 10  1  0
 10 11  2  0
 11 12  1  0
 12  8  1  0
M  END
>  <SLURM_JOB_NAME>  (169) 
BulkDock.place:Flavi_NS5_RdRp:RdRp_knitwork_thumb_site_2_impure_split4000_batch000

>  <fragmenstein_error>  (169) 
['']

>  <HIPPO Compound ID>  (169) 
6018

>  <alias>  (169) 
None

>  <energy_score>  (169) 
-105.001147

>  <exports>  (169) 
['/opt/xchem-fragalysis-2/maxwin/BulkDock/OUTPUTS/RdRp_knitwork_thumb_site_2_impure_split4000_batch000_211013.sdf']

>  <fragmenstein_outcome>  (169) 
['acceptable']

>  <fragmenstein_mode>  (169) 
['expansion']

>  <HIPPO Pose ID>  (169) 
51672

>  <name>  (169) 
VJCRZYCJCUADLI-QMMMGPOBSA-N

>  <fragmenstein_runtime>  (169) 
[1.156661033630371]

>  <csv_name>  (169) 
RdRp_knitwork_thumb_site_2_impure_split4000_batch000.csv

>  <inchikey>  (169) 
VJCRZYCJCUADLI-QMMMGPOBSA-N

>  <original SMILES>  (169) 
CCC(=O)[C@](C)(O)c1cncs1

>  <scratch_subdir>  (169) 
['/opt/xchem-fragalysis-2/maxwin/BulkDock/SCRATCH/211013/C6018-P17']

>  <tags>  (169) 
['Fragmenstein placed']

>  <distance_score>  (169) 
0.836874

>  <original ID>  (169) 
VJCRZYCJCUADLI-QMMMGPOBSA-N

>  <ref_mols>  (169) 
d0174a,d0615a

>  <SLURM_JOB_ID>  (169) 
211013

>  <ref_pdb>  (169) 
d0174a

$$$$
51673
     RDKit          3D

 12 12  0  0  0  0  0  0  0  0999 V2000
  -14.9263  -69.3915  -21.3271 C   0  0  0  0  0  0  0  0  0  0  0  0
  -13.6707  -69.3557  -20.4764 C   0  0  0  0  0  0  0  0  0  0  0  0
  -13.1025  -70.7397  -20.2545 C   0  0  0  0  0  0  0  0  0  0  0  0
  -13.5777  -71.4476  -19.3523 O   0  0  0  0  0  0  0  0  0  0  0  0
  -11.9254  -71.2465  -21.1280 C   0  0  2  0  0  0  0  0  0  0  0  0
  -11.9294  -70.6720  -22.5409 C   0  0  0  0  0  0  0  0  0  0  0  0
  -12.1073  -72.6636  -21.2813 O   0  0  0  0  0  0  0  0  0  0  0  0
  -10.6340  -71.0869  -20.3559 C   0  0  0  0  0  0  0  0  0  0  0  0
  -10.3865  -71.3635  -19.0178 C   0  0  0  0  0  0  0  0  0  0  0  0
   -9.0873  -71.1951  -18.5813 N   0  0  0  0  0  0  0  0  0  0  0  0
   -8.3414  -70.8136  -19.5942 C   0  0  0  0  0  0  0  0  0  0  0  0
   -9.1527  -70.5878  -21.0821 S   0  0  0  0  0  0  0  0  0  0  0  0
  1  2  1  0
  2  3  1  0
  3  4  2  0
  3  5  1  0
  5  6  1  6
  5  7  1  0
  5  8  1  0
  8  9  2  0
  9 10  1  0
 10 11  2  0
 11 12  1  0
 12  8  1  0
M  END
>  <SLURM_JOB_NAME>  (170) 
BulkDock.place:Flavi_NS5_RdRp:RdRp_knitwork_thumb_site_2_impure_split4000_batch000

>  <fragmenstein_error>  (170) 
['']

>  <HIPPO Compound ID>  (170) 
6018

>  <alias>  (170) 
None

>  <energy_score>  (170) 
-105.193427

>  <exports>  (170) 
['/opt/xchem-fragalysis-2/maxwin/BulkDock/OUTPUTS/RdRp_knitwork_thumb_site_2_impure_split4000_batch000_211013.sdf']

>  <fragmenstein_outcome>  (170) 
['acceptable']

>  <fragmenstein_mode>  (170) 
['expansion']

>  <HIPPO Pose ID>  (170) 
51673

>  <name>  (170) 
VJCRZYCJCUADLI-QMMMGPOBSA-N

>  <fragmenstein_runtime>  (170) 
[1.0828495025634766]

>  <csv_name>  (170) 
RdRp_knitwork_thumb_site_2_impure_split4000_batch000.csv

>  <inchikey>  (170) 
VJCRZYCJCUADLI-QMMMGPOBSA-N

>  <original SMILES>  (170) 
CCC(=O)[C@](C)(O)c1cncs1

>  <scratch_subdir>  (170) 
['/opt/xchem-fragalysis-2/maxwin/BulkDock/SCRATCH/211013/C6018-P50']

>  <tags>  (170) 
['Fragmenstein placed']

>  <distance_score>  (170) 
0.730302

>  <original ID>  (170) 
VJCRZYCJCUADLI-QMMMGPOBSA-N

>  <ref_mols>  (170) 
d0174a,d0615a

>  <SLURM_JOB_ID>  (170) 
211013

>  <ref_pdb>  (170) 
d0615a

$$$$
51685
     RDKit          3D

 12 12  0  0  0  0  0  0  0  0999 V2000
  -14.6387  -69.9811  -22.9426 C   0  0  0  0  0  0  0  0  0  0  0  0
  -14.4995  -69.0379  -21.7973 C   0  0  0  0  0  0  0  0  0  0  0  0
  -13.8207  -69.2171  -20.6554 C   0  0  0  0  0  0  0  0  0  0  0  0
  -13.0573  -70.4246  -20.2450 C   0  0  0  0  0  0  0  0  0  0  0  0
  -13.3871  -70.9345  -19.1666 O   0  0  0  0  0  0  0  0  0  0  0  0
  -11.8923  -70.9488  -21.1255 C   0  0  1  0  0  0  0  0  0  0  0  0
  -11.5902  -70.1514  -22.2718 O   0  0  0  0  0  0  0  0  0  0  0  0
  -10.6409  -71.1327  -20.2939 C   0  0  0  0  0  0  0  0  0  0  0  0
  -10.4831  -71.8905  -19.1478 C   0  0  0  0  0  0  0  0  0  0  0  0
   -8.8678  -71.7903  -18.5848 S   0  0  0  0  0  0  0  0  0  0  0  0
   -8.4785  -70.7907  -19.9233 C   0  0  0  0  0  0  0  0  0  0  0  0
   -9.4738  -70.4994  -20.7330 N   0  0  0  0  0  0  0  0  0  0  0  0
  1  2  1  0
  2  3  2  3
  3  4  1  0
  4  5  2  0
  4  6  1  0
  6  7  1  6
  6  8  1  0
  8  9  2  0
  9 10  1  0
 10 11  1  0
 11 12  2  0
 12  8  1  0
M  END
>  <SLURM_JOB_NAME>  (171) 
BulkDock.place:Flavi_NS5_RdRp:RdRp_knitwork_thumb_site_2_impure_split4000_batch000

>  <fragmenstein_error>  (171) 
['']

>  <HIPPO Compound ID>  (171) 
6046

>  <alias>  (171) 
None

>  <energy_score>  (171) 
-81.443877

>  <exports>  (171) 
['/opt/xchem-fragalysis-2/maxwin/BulkDock/OUTPUTS/RdRp_knitwork_thumb_site_2_impure_split4000_batch000_211013.sdf']

>  <fragmenstein_outcome>  (171) 
['acceptable']

>  <fragmenstein_mode>  (171) 
['expansion']

>  <HIPPO Pose ID>  (171) 
51685

>  <name>  (171) 
HRNVUJIHQAJSLC-QMMMGPOBSA-N

>  <fragmenstein_runtime>  (171) 
[1.0421340465545654]

>  <csv_name>  (171) 
RdRp_knitwork_thumb_site_2_impure_split4000_batch000.csv

>  <inchikey>  (171) 
HRNVUJIHQAJSLC-QMMMGPOBSA-N

>  <original SMILES>  (171) 
CC=CC(=O)[C@@H](O)c1cscn1

>  <scratch_subdir>  (171) 
['/opt/xchem-fragalysis-2/maxwin/BulkDock/SCRATCH/211013/C6046-P17']

>  <tags>  (171) 
['Fragmenstein placed']

>  <distance_score>  (171) 
0.783128

>  <original ID>  (171) 
HRNVUJIHQAJSLC-QMMMGPOBSA-N

>  <ref_mols>  (171) 
d0174a,d0615a

>  <SLURM_JOB_ID>  (171) 
211013

>  <ref_pdb>  (171) 
d0174a

$$$$
51687
     RDKit          3D

 12 12  0  0  0  0  0  0  0  0999 V2000
  -14.5506  -69.9737  -22.9864 C   0  0  0  0  0  0  0  0  0  0  0  0
  -14.5280  -69.1285  -21.7590 C   0  0  0  0  0  0  0  0  0  0  0  0
  -13.9036  -69.3660  -20.5968 C   0  0  0  0  0  0  0  0  0  0  0  0
  -13.0784  -70.5466  -20.2218 C   0  0  0  0  0  0  0  0  0  0  0  0
  -13.3876  -71.1110  -19.1635 O   0  0  0  0  0  0  0  0  0  0  0  0
  -11.8821  -70.9885  -21.1070 C   0  0  1  0  0  0  0  0  0  0  0  0
  -11.5897  -70.1393  -22.2168 O   0  0  0  0  0  0  0  0  0  0  0  0
  -10.6323  -71.1587  -20.2673 C   0  0  0  0  0  0  0  0  0  0  0  0
  -10.4622  -71.9279  -19.1307 C   0  0  0  0  0  0  0  0  0  0  0  0
   -8.8521  -71.7983  -18.5581 S   0  0  0  0  0  0  0  0  0  0  0  0
   -8.4789  -70.7737  -19.8818 C   0  0  0  0  0  0  0  0  0  0  0  0
   -9.4765  -70.4944  -20.6925 N   0  0  0  0  0  0  0  0  0  0  0  0
  1  2  1  0
  2  3  2  3
  3  4  1  0
  4  5  2  0
  4  6  1  0
  6  7  1  6
  6  8  1  0
  8  9  2  0
  9 10  1  0
 10 11  1  0
 11 12  2  0
 12  8  1  0
M  END
>  <SLURM_JOB_NAME>  (172) 
BulkDock.place:Flavi_NS5_RdRp:RdRp_knitwork_thumb_site_2_impure_split4000_batch000

>  <fragmenstein_error>  (172) 
['']

>  <HIPPO Compound ID>  (172) 
6046

>  <alias>  (172) 
None

>  <energy_score>  (172) 
-81.195563

>  <exports>  (172) 
['/opt/xchem-fragalysis-2/maxwin/BulkDock/OUTPUTS/RdRp_knitwork_thumb_site_2_impure_split4000_batch000_211013.sdf']

>  <fragmenstein_outcome>  (172) 
['acceptable']

>  <fragmenstein_mode>  (172) 
['expansion']

>  <HIPPO Pose ID>  (172) 
51687

>  <name>  (172) 
HRNVUJIHQAJSLC-QMMMGPOBSA-N

>  <fragmenstein_runtime>  (172) 
[1.0940682888031006]

>  <csv_name>  (172) 
RdRp_knitwork_thumb_site_2_impure_split4000_batch000.csv

>  <inchikey>  (172) 
HRNVUJIHQAJSLC-QMMMGPOBSA-N

>  <original SMILES>  (172) 
CC=CC(=O)[C@@H](O)c1cscn1

>  <scratch_subdir>  (172) 
['/opt/xchem-fragalysis-2/maxwin/BulkDock/SCRATCH/211013/C6046-P50']

>  <tags>  (172) 
['Fragmenstein placed']

>  <distance_score>  (172) 
0.73326

>  <original ID>  (172) 
HRNVUJIHQAJSLC-QMMMGPOBSA-N

>  <ref_mols>  (172) 
d0174a,d0615a

>  <SLURM_JOB_ID>  (172) 
211013

>  <ref_pdb>  (172) 
d0615a

$$$$
51689
     RDKit          3D

 18 18  0  0  0  0  0  0  0  0999 V2000
   -9.1157  -72.3513  -18.3925 C   0  0  0  0  0  0  0  0  0  0  0  0
  -10.1357  -72.2262  -19.5181 C   0  0  0  0  0  0  0  0  0  0  0  0
  -10.1813  -70.8090  -20.1151 C   0  0  1  0  0  0  0  0  0  0  0  0
   -8.8745  -70.4597  -20.8337 C   0  0  0  0  0  0  0  0  0  0  0  0
  -11.4234  -70.5354  -21.0029 C   0  0  2  0  0  0  0  0  0  0  0  0
  -12.6395  -70.8653  -20.1775 N   0  0  0  0  0  0  0  0  0  0  0  0
  -13.9017  -69.7539  -20.1809 S   0  0  0  0  0  0  0  0  0  0  0  0
  -14.7045  -70.0506  -19.0138 O   0  0  0  0  0  0  0  0  0  0  0  0
  -13.3756  -68.4383  -20.4423 O   0  0  0  0  0  0  0  0  0  0  0  0
  -14.9125  -70.1357  -21.5459 C   0  0  0  0  0  0  0  0  0  0  0  0
  -15.3836  -69.2030  -22.4464 C   0  0  0  0  0  0  0  0  0  0  0  0
  -16.2911  -69.9940  -23.6697 S   0  0  0  0  0  0  0  0  0  0  0  0
  -15.9261  -71.5031  -22.9448 C   0  0  0  0  0  0  0  0  0  0  0  0
  -15.2036  -71.4676  -21.8480 N   0  0  0  0  0  0  0  0  0  0  0  0
  -11.4256  -71.1607  -22.4027 C   0  0  0  0  0  0  0  0  0  0  0  0
  -12.5523  -70.8280  -23.0732 F   0  0  0  0  0  0  0  0  0  0  0  0
  -11.3771  -72.5086  -22.3407 F   0  0  0  0  0  0  0  0  0  0  0  0
  -10.3869  -70.7294  -23.1463 F   0  0  0  0  0  0  0  0  0  0  0  0
  1  2  1  0
  2  3  1  0
  3  4  1  6
  3  5  1  0
  5  6  1  1
  6  7  1  0
  7  8  2  0
  7  9  2  0
  7 10  1  0
 10 11  2  0
 11 12  1  0
 12 13  1  0
 13 14  2  0
  5 15  1  0
 15 16  1  0
 15 17  1  0
 15 18  1  0
 14 10  1  0
M  END
>  <SLURM_JOB_NAME>  (173) 
BulkDock.place:Flavi_NS5_RdRp:RdRp_knitwork_thumb_site_2_impure_split4000_batch000

>  <fragmenstein_error>  (173) 
['']

>  <HIPPO Compound ID>  (173) 
6117

>  <alias>  (173) 
None

>  <energy_score>  (173) 
-85.71594

>  <exports>  (173) 
['/opt/xchem-fragalysis-2/maxwin/BulkDock/OUTPUTS/RdRp_knitwork_thumb_site_2_impure_split4000_batch000_211013.sdf']

>  <fragmenstein_outcome>  (173) 
['acceptable']

>  <fragmenstein_mode>  (173) 
['expansion']

>  <HIPPO Pose ID>  (173) 
51689

>  <name>  (173) 
KUVOASPTKQALRA-SVRRBLITSA-N

>  <fragmenstein_runtime>  (173) 
[3.03486967086792]

>  <csv_name>  (173) 
RdRp_knitwork_thumb_site_2_impure_split4000_batch000.csv

>  <inchikey>  (173) 
KUVOASPTKQALRA-SVRRBLITSA-N

>  <original SMILES>  (173) 
CC[C@@H](C)[C@H](NS(=O)(=O)c1cscn1)C(F)(F)F

>  <scratch_subdir>  (173) 
['/opt/xchem-fragalysis-2/maxwin/BulkDock/SCRATCH/211013/C6117-P17']

>  <tags>  (173) 
['Fragmenstein placed']

>  <distance_score>  (173) 
0.906587

>  <original ID>  (173) 
KUVOASPTKQALRA-SVRRBLITSA-N

>  <ref_mols>  (173) 
d0174a,d0615a

>  <SLURM_JOB_ID>  (173) 
211013

>  <ref_pdb>  (173) 
d0174a

$$$$
51692
     RDKit          3D

 18 18  0  0  0  0  0  0  0  0999 V2000
   -9.0673  -72.4176  -18.4740 C   0  0  0  0  0  0  0  0  0  0  0  0
  -10.1052  -72.2043  -19.5696 C   0  0  0  0  0  0  0  0  0  0  0  0
  -10.1254  -70.7554  -20.0873 C   0  0  1  0  0  0  0  0  0  0  0  0
   -8.8216  -70.3962  -20.8069 C   0  0  0  0  0  0  0  0  0  0  0  0
  -11.3742  -70.4073  -20.9373 C   0  0  2  0  0  0  0  0  0  0  0  0
  -12.6020  -70.8966  -20.2169 N   0  0  0  0  0  0  0  0  0  0  0  0
  -13.8981  -69.8152  -20.1178 S   0  0  0  0  0  0  0  0  0  0  0  0
  -14.6590  -70.1927  -18.9475 O   0  0  0  0  0  0  0  0  0  0  0  0
  -13.4271  -68.4701  -20.3299 O   0  0  0  0  0  0  0  0  0  0  0  0
  -14.9311  -70.1641  -21.4733 C   0  0  0  0  0  0  0  0  0  0  0  0
  -15.5367  -69.2052  -22.2581 C   0  0  0  0  0  0  0  0  0  0  0  0
  -16.4005  -69.9691  -23.5289 S   0  0  0  0  0  0  0  0  0  0  0  0
  -15.8428  -71.4899  -22.9728 C   0  0  0  0  0  0  0  0  0  0  0  0
  -15.0936  -71.4856  -21.8943 N   0  0  0  0  0  0  0  0  0  0  0  0
  -11.3141  -70.7192  -22.4392 C   0  0  0  0  0  0  0  0  0  0  0  0
  -10.4820  -69.8768  -23.0866 F   0  0  0  0  0  0  0  0  0  0  0  0
  -12.5296  -70.5853  -23.0140 F   0  0  0  0  0  0  0  0  0  0  0  0
  -10.8855  -71.9706  -22.6746 F   0  0  0  0  0  0  0  0  0  0  0  0
  1  2  1  0
  2  3  1  0
  3  4  1  6
  3  5  1  0
  5  6  1  1
  6  7  1  0
  7  8  2  0
  7  9  2  0
  7 10  1  0
 10 11  2  0
 11 12  1  0
 12 13  1  0
 13 14  2  0
  5 15  1  0
 15 16  1  0
 15 17  1  0
 15 18  1  0
 14 10  1  0
M  END
>  <SLURM_JOB_NAME>  (174) 
BulkDock.place:Flavi_NS5_RdRp:RdRp_knitwork_thumb_site_2_impure_split4000_batch000

>  <fragmenstein_error>  (174) 
['']

>  <HIPPO Compound ID>  (174) 
6117

>  <alias>  (174) 
None

>  <energy_score>  (174) 
-82.962015

>  <exports>  (174) 
['/opt/xchem-fragalysis-2/maxwin/BulkDock/OUTPUTS/RdRp_knitwork_thumb_site_2_impure_split4000_batch000_211013.sdf']

>  <fragmenstein_outcome>  (174) 
['acceptable']

>  <fragmenstein_mode>  (174) 
['expansion']

>  <HIPPO Pose ID>  (174) 
51692

>  <name>  (174) 
KUVOASPTKQALRA-SVRRBLITSA-N

>  <fragmenstein_runtime>  (174) 
[3.1371612548828125]

>  <csv_name>  (174) 
RdRp_knitwork_thumb_site_2_impure_split4000_batch000.csv

>  <inchikey>  (174) 
KUVOASPTKQALRA-SVRRBLITSA-N

>  <original SMILES>  (174) 
CC[C@@H](C)[C@H](NS(=O)(=O)c1cscn1)C(F)(F)F

>  <scratch_subdir>  (174) 
['/opt/xchem-fragalysis-2/maxwin/BulkDock/SCRATCH/211013/C6117-P50']

>  <tags>  (174) 
['Fragmenstein placed']

>  <distance_score>  (174) 
0.985077

>  <original ID>  (174) 
KUVOASPTKQALRA-SVRRBLITSA-N

>  <ref_mols>  (174) 
d0174a,d0615a

>  <SLURM_JOB_ID>  (174) 
211013

>  <ref_pdb>  (174) 
d0615a

$$$$
51694
     RDKit          3D

 13 13  0  0  0  0  0  0  0  0999 V2000
  -11.5185  -71.4613  -22.6352 C   0  0  0  0  0  0  0  0  0  0  0  0
  -11.6968  -70.5835  -21.3994 C   0  0  1  0  0  0  0  0  0  0  0  0
  -12.9950  -70.9273  -20.7922 N   0  0  0  0  0  0  0  0  0  0  0  0
  -13.8869  -69.6915  -20.1130 S   0  0  0  0  0  0  0  0  0  0  0  0
  -13.0676  -68.5075  -20.0637 O   0  0  0  0  0  0  0  0  0  0  0  0
  -14.4438  -70.2505  -18.8948 O   0  0  0  0  0  0  0  0  0  0  0  0
  -15.2237  -69.4298  -21.2695 C   0  0  0  0  0  0  0  0  0  0  0  0
  -14.7229  -69.4415  -23.1386 Br  0  0  0  0  0  0  0  0  0  0  0  0
  -10.5912  -70.7952  -20.4016 C   0  0  0  0  0  0  0  0  0  0  0  0
  -10.6110  -71.2477  -19.0919 C   0  0  0  0  0  0  0  0  0  0  0  0
   -9.3852  -71.3672  -18.4623 N   0  0  0  0  0  0  0  0  0  0  0  0
   -8.4426  -70.9729  -19.2886 C   0  0  0  0  0  0  0  0  0  0  0  0
   -8.9608  -70.4345  -20.8260 S   0  0  0  0  0  0  0  0  0  0  0  0
  2  1  1  6
  2  3  1  0
  3  4  1  0
  4  5  2  0
  4  6  2  0
  4  7  1  0
  7  8  1  0
  2  9  1  0
  9 10  2  0
 10 11  1  0
 11 12  2  0
 12 13  1  0
 13  9  1  0
M  END
>  <SLURM_JOB_NAME>  (175) 
BulkDock.place:Flavi_NS5_RdRp:RdRp_knitwork_thumb_site_2_impure_split4000_batch000

>  <fragmenstein_error>  (175) 
['']

>  <HIPPO Compound ID>  (175) 
6140

>  <alias>  (175) 
None

>  <energy_score>  (175) 
-102.955901

>  <exports>  (175) 
['/opt/xchem-fragalysis-2/maxwin/BulkDock/OUTPUTS/RdRp_knitwork_thumb_site_2_impure_split4000_batch000_211013.sdf']

>  <fragmenstein_outcome>  (175) 
['acceptable']

>  <fragmenstein_mode>  (175) 
['expansion']

>  <HIPPO Pose ID>  (175) 
51694

>  <name>  (175) 
ZXADTZPZTLKOGO-RXMQYKEDSA-N

>  <fragmenstein_runtime>  (175) 
[1.3281049728393555]

>  <csv_name>  (175) 
RdRp_knitwork_thumb_site_2_impure_split4000_batch000.csv

>  <inchikey>  (175) 
ZXADTZPZTLKOGO-RXMQYKEDSA-N

>  <original SMILES>  (175) 
C[C@@H](NS(=O)(=O)CBr)c1cncs1

>  <scratch_subdir>  (175) 
['/opt/xchem-fragalysis-2/maxwin/BulkDock/SCRATCH/211013/C6140-P17']

>  <tags>  (175) 
['Fragmenstein placed']

>  <distance_score>  (175) 
0.829493

>  <original ID>  (175) 
ZXADTZPZTLKOGO-RXMQYKEDSA-N

>  <ref_mols>  (175) 
d0174a,d0615a

>  <SLURM_JOB_ID>  (175) 
211013

>  <ref_pdb>  (175) 
d0174a

$$$$
51698
     RDKit          3D

 13 13  0  0  0  0  0  0  0  0999 V2000
  -11.5355  -71.3381  -22.6605 C   0  0  0  0  0  0  0  0  0  0  0  0
  -11.7291  -70.5155  -21.3886 C   0  0  1  0  0  0  0  0  0  0  0  0
  -13.0118  -70.9264  -20.7892 N   0  0  0  0  0  0  0  0  0  0  0  0
  -13.9458  -69.7460  -20.0610 S   0  0  0  0  0  0  0  0  0  0  0  0
  -13.1993  -68.5137  -20.0425 O   0  0  0  0  0  0  0  0  0  0  0  0
  -14.4058  -70.3462  -18.8228 O   0  0  0  0  0  0  0  0  0  0  0  0
  -15.3454  -69.5716  -21.1643 C   0  0  0  0  0  0  0  0  0  0  0  0
  -14.8852  -69.4307  -23.0421 Br  0  0  0  0  0  0  0  0  0  0  0  0
  -10.6100  -70.7305  -20.4046 C   0  0  0  0  0  0  0  0  0  0  0  0
  -10.6156  -71.1884  -19.0962 C   0  0  0  0  0  0  0  0  0  0  0  0
   -9.3833  -71.3124  -18.4805 N   0  0  0  0  0  0  0  0  0  0  0  0
   -8.4495  -70.9078  -19.3112 C   0  0  0  0  0  0  0  0  0  0  0  0
   -8.9834  -70.3607  -20.8402 S   0  0  0  0  0  0  0  0  0  0  0  0
  2  1  1  6
  2  3  1  0
  3  4  1  0
  4  5  2  0
  4  6  2  0
  4  7  1  0
  7  8  1  0
  2  9  1  0
  9 10  2  0
 10 11  1  0
 11 12  2  0
 12 13  1  0
 13  9  1  0
M  END
>  <SLURM_JOB_NAME>  (176) 
BulkDock.place:Flavi_NS5_RdRp:RdRp_knitwork_thumb_site_2_impure_split4000_batch000

>  <fragmenstein_error>  (176) 
['']

>  <HIPPO Compound ID>  (176) 
6140

>  <alias>  (176) 
None

>  <energy_score>  (176) 
-103.151485

>  <exports>  (176) 
['/opt/xchem-fragalysis-2/maxwin/BulkDock/OUTPUTS/RdRp_knitwork_thumb_site_2_impure_split4000_batch000_211013.sdf']

>  <fragmenstein_outcome>  (176) 
['acceptable']

>  <fragmenstein_mode>  (176) 
['expansion']

>  <HIPPO Pose ID>  (176) 
51698

>  <name>  (176) 
ZXADTZPZTLKOGO-RXMQYKEDSA-N

>  <fragmenstein_runtime>  (176) 
[1.6417837142944336]

>  <csv_name>  (176) 
RdRp_knitwork_thumb_site_2_impure_split4000_batch000.csv

>  <inchikey>  (176) 
ZXADTZPZTLKOGO-RXMQYKEDSA-N

>  <original SMILES>  (176) 
C[C@@H](NS(=O)(=O)CBr)c1cncs1

>  <scratch_subdir>  (176) 
['/opt/xchem-fragalysis-2/maxwin/BulkDock/SCRATCH/211013/C6140-P50']

>  <tags>  (176) 
['Fragmenstein placed']

>  <distance_score>  (176) 
0.814325

>  <original ID>  (176) 
ZXADTZPZTLKOGO-RXMQYKEDSA-N

>  <ref_mols>  (176) 
d0174a,d0615a

>  <SLURM_JOB_ID>  (176) 
211013

>  <ref_pdb>  (176) 
d0615a

$$$$
51704
     RDKit          3D

 13 13  0  0  0  0  0  0  0  0999 V2000
  -14.2936  -69.3635  -23.1394 C   0  0  0  0  0  0  0  0  0  0  0  0
  -14.9893  -69.2068  -21.7913 C   0  0  0  0  0  0  0  0  0  0  0  0
  -16.0501  -70.2898  -21.6241 C   0  0  0  0  0  0  0  0  0  0  0  0
  -14.0248  -69.1495  -20.6002 C   0  0  0  0  0  0  0  0  0  0  0  0
  -13.1784  -70.3904  -20.4001 C   0  0  0  0  0  0  0  0  0  0  0  0
  -13.5876  -71.3031  -19.6754 O   0  0  0  0  0  0  0  0  0  0  0  0
  -11.8484  -70.4501  -21.1582 C   0  0  2  0  0  0  0  0  0  0  0  0
  -11.8754  -71.4543  -22.1575 O   0  0  0  0  0  0  0  0  0  0  0  0
  -10.6877  -70.7372  -20.2604 C   0  0  0  0  0  0  0  0  0  0  0  0
  -10.6144  -71.2794  -18.9888 C   0  0  0  0  0  0  0  0  0  0  0  0
   -9.3459  -71.4097  -18.4525 N   0  0  0  0  0  0  0  0  0  0  0  0
   -8.4624  -71.0006  -19.3356 C   0  0  0  0  0  0  0  0  0  0  0  0
   -9.0889  -70.4091  -20.8127 S   0  0  0  0  0  0  0  0  0  0  0  0
  1  2  1  0
  2  3  1  0
  2  4  1  0
  4  5  1  0
  5  6  2  0
  5  7  1  0
  7  8  1  6
  7  9  1  0
  9 10  2  0
 10 11  1  0
 11 12  2  0
 12 13  1  0
 13  9  1  0
M  END
>  <SLURM_JOB_NAME>  (177) 
BulkDock.place:Flavi_NS5_RdRp:RdRp_knitwork_thumb_site_2_impure_split4000_batch000

>  <fragmenstein_error>  (177) 
['']

>  <HIPPO Compound ID>  (177) 
6214

>  <alias>  (177) 
None

>  <energy_score>  (177) 
-119.467362

>  <exports>  (177) 
['/opt/xchem-fragalysis-2/maxwin/BulkDock/OUTPUTS/RdRp_knitwork_thumb_site_2_impure_split4000_batch000_211013.sdf']

>  <fragmenstein_outcome>  (177) 
['acceptable']

>  <fragmenstein_mode>  (177) 
['expansion']

>  <HIPPO Pose ID>  (177) 
51704

>  <name>  (177) 
QEKNJNYJKWQQNZ-VIFPVBQESA-N

>  <fragmenstein_runtime>  (177) 
[1.8318922519683838]

>  <csv_name>  (177) 
RdRp_knitwork_thumb_site_2_impure_split4000_batch000.csv

>  <inchikey>  (177) 
QEKNJNYJKWQQNZ-VIFPVBQESA-N

>  <original SMILES>  (177) 
CC(C)CC(=O)[C@H](O)c1cncs1

>  <scratch_subdir>  (177) 
['/opt/xchem-fragalysis-2/maxwin/BulkDock/SCRATCH/211013/C6214-P17']

>  <tags>  (177) 
['Fragmenstein placed']

>  <distance_score>  (177) 
0.671638

>  <original ID>  (177) 
QEKNJNYJKWQQNZ-VIFPVBQESA-N

>  <ref_mols>  (177) 
d0174a,d0615a

>  <SLURM_JOB_ID>  (177) 
211013

>  <ref_pdb>  (177) 
d0174a

$$$$
51705
     RDKit          3D

 13 13  0  0  0  0  0  0  0  0999 V2000
  -14.3951  -69.2695  -23.0172 C   0  0  0  0  0  0  0  0  0  0  0  0
  -15.0047  -69.1663  -21.6204 C   0  0  0  0  0  0  0  0  0  0  0  0
  -16.2189  -70.0824  -21.5229 C   0  0  0  0  0  0  0  0  0  0  0  0
  -14.0053  -69.4342  -20.4848 C   0  0  0  0  0  0  0  0  0  0  0  0
  -13.1447  -70.6625  -20.7108 C   0  0  0  0  0  0  0  0  0  0  0  0
  -13.5563  -71.7981  -20.4597 O   0  0  0  0  0  0  0  0  0  0  0  0
  -11.7671  -70.4270  -21.3244 C   0  0  2  0  0  0  0  0  0  0  0  0
  -11.5900  -71.2625  -22.4581 O   0  0  0  0  0  0  0  0  0  0  0  0
  -10.6682  -70.7262  -20.3576 C   0  0  0  0  0  0  0  0  0  0  0  0
  -10.6837  -71.3140  -19.1040 C   0  0  0  0  0  0  0  0  0  0  0  0
   -9.4583  -71.4372  -18.4730 N   0  0  0  0  0  0  0  0  0  0  0  0
   -8.5186  -70.9747  -19.2675 C   0  0  0  0  0  0  0  0  0  0  0  0
   -9.0410  -70.3336  -20.7641 S   0  0  0  0  0  0  0  0  0  0  0  0
  1  2  1  0
  2  3  1  0
  2  4  1  0
  4  5  1  0
  5  6  2  0
  5  7  1  0
  7  8  1  6
  7  9  1  0
  9 10  2  0
 10 11  1  0
 11 12  2  0
 12 13  1  0
 13  9  1  0
M  END
>  <SLURM_JOB_NAME>  (178) 
BulkDock.place:Flavi_NS5_RdRp:RdRp_knitwork_thumb_site_2_impure_split4000_batch000

>  <fragmenstein_error>  (178) 
['']

>  <HIPPO Compound ID>  (178) 
6214

>  <alias>  (178) 
None

>  <energy_score>  (178) 
-119.808942

>  <exports>  (178) 
['/opt/xchem-fragalysis-2/maxwin/BulkDock/OUTPUTS/RdRp_knitwork_thumb_site_2_impure_split4000_batch000_211013.sdf']

>  <fragmenstein_outcome>  (178) 
['acceptable']

>  <fragmenstein_mode>  (178) 
['expansion']

>  <HIPPO Pose ID>  (178) 
51705

>  <name>  (178) 
QEKNJNYJKWQQNZ-VIFPVBQESA-N

>  <fragmenstein_runtime>  (178) 
[1.724804401397705]

>  <csv_name>  (178) 
RdRp_knitwork_thumb_site_2_impure_split4000_batch000.csv

>  <inchikey>  (178) 
QEKNJNYJKWQQNZ-VIFPVBQESA-N

>  <original SMILES>  (178) 
CC(C)CC(=O)[C@H](O)c1cncs1

>  <scratch_subdir>  (178) 
['/opt/xchem-fragalysis-2/maxwin/BulkDock/SCRATCH/211013/C6214-P50']

>  <tags>  (178) 
['Fragmenstein placed']

>  <distance_score>  (178) 
0.53071

>  <original ID>  (178) 
QEKNJNYJKWQQNZ-VIFPVBQESA-N

>  <ref_mols>  (178) 
d0174a,d0615a

>  <SLURM_JOB_ID>  (178) 
211013

>  <ref_pdb>  (178) 
d0615a

$$$$
51709
     RDKit          3D

 14 14  0  0  0  0  0  0  0  0999 V2000
  -14.1567  -68.7937  -22.2340 C   0  0  0  0  0  0  0  0  0  0  0  0
  -14.6969  -69.7914  -21.2396 C   0  0  0  0  0  0  0  0  0  0  0  0
  -13.7024  -70.5705  -20.5758 O   0  0  0  0  0  0  0  0  0  0  0  0
  -12.9086  -71.5268  -21.3210 C   0  0  1  0  0  0  0  0  0  0  0  0
  -13.5985  -72.1591  -22.5772 C   0  0  0  0  0  0  0  0  0  0  0  0
  -14.7472  -73.0589  -22.1252 C   0  0  0  0  0  0  0  0  0  0  0  0
  -12.6746  -72.9989  -23.4675 C   0  0  0  0  0  0  0  0  0  0  0  0
  -11.4562  -71.0391  -21.5789 C   0  0  1  0  0  0  0  0  0  0  0  0
  -11.3742  -69.8430  -22.3339 O   0  0  0  0  0  0  0  0  0  0  0  0
  -10.5849  -70.9078  -20.3632 C   0  0  0  0  0  0  0  0  0  0  0  0
  -10.8653  -70.9726  -19.0122 C   0  0  0  0  0  0  0  0  0  0  0  0
   -9.7683  -71.0078  -18.1658 N   0  0  0  0  0  0  0  0  0  0  0  0
   -8.6699  -70.9283  -18.8833 C   0  0  0  0  0  0  0  0  0  0  0  0
   -8.8770  -70.7767  -20.5719 S   0  0  0  0  0  0  0  0  0  0  0  0
  1  2  1  0
  2  3  1  0
  4  3  1  6
  4  5  1  0
  5  6  1  0
  5  7  1  0
  4  8  1  0
  8  9  1  1
  8 10  1  0
 10 11  2  0
 11 12  1  0
 12 13  2  0
 13 14  1  0
 14 10  1  0
M  END
>  <SLURM_JOB_NAME>  (179) 
BulkDock.place:Flavi_NS5_RdRp:RdRp_knitwork_thumb_site_2_impure_split4000_batch000

>  <fragmenstein_error>  (179) 
['']

>  <HIPPO Compound ID>  (179) 
6219

>  <alias>  (179) 
None

>  <energy_score>  (179) 
-50.439091

>  <exports>  (179) 
['/opt/xchem-fragalysis-2/maxwin/BulkDock/OUTPUTS/RdRp_knitwork_thumb_site_2_impure_split4000_batch000_211013.sdf']

>  <fragmenstein_outcome>  (179) 
['acceptable']

>  <fragmenstein_mode>  (179) 
['expansion']

>  <HIPPO Pose ID>  (179) 
51709

>  <name>  (179) 
VSIMLMGGLHKOHQ-UWVGGRQHSA-N

>  <fragmenstein_runtime>  (179) 
[1.5274341106414795]

>  <csv_name>  (179) 
RdRp_knitwork_thumb_site_2_impure_split4000_batch000.csv

>  <inchikey>  (179) 
VSIMLMGGLHKOHQ-UWVGGRQHSA-N

>  <original SMILES>  (179) 
CCO[C@@H](C(C)C)[C@@H](O)c1cncs1

>  <scratch_subdir>  (179) 
['/opt/xchem-fragalysis-2/maxwin/BulkDock/SCRATCH/211013/C6219-P17']

>  <tags>  (179) 
['Fragmenstein placed']

>  <distance_score>  (179) 
0.821757

>  <original ID>  (179) 
VSIMLMGGLHKOHQ-UWVGGRQHSA-N

>  <ref_mols>  (179) 
d0174a,d0615a

>  <SLURM_JOB_ID>  (179) 
211013

>  <ref_pdb>  (179) 
d0174a

$$$$
51710
     RDKit          3D

 14 14  0  0  0  0  0  0  0  0999 V2000
  -15.1835  -68.6895  -22.1093 C   0  0  0  0  0  0  0  0  0  0  0  0
  -14.6393  -69.4570  -20.9236 C   0  0  0  0  0  0  0  0  0  0  0  0
  -13.2645  -69.7201  -21.1152 O   0  0  0  0  0  0  0  0  0  0  0  0
  -12.8387  -71.0518  -21.4226 C   0  0  1  0  0  0  0  0  0  0  0  0
  -13.4520  -71.7346  -22.6936 C   0  0  0  0  0  0  0  0  0  0  0  0
  -13.2677  -70.9634  -24.0025 C   0  0  0  0  0  0  0  0  0  0  0  0
  -14.8976  -72.1884  -22.5089 C   0  0  0  0  0  0  0  0  0  0  0  0
  -11.2919  -71.0168  -21.6048 C   0  0  1  0  0  0  0  0  0  0  0  0
  -10.8907  -69.9704  -22.4909 O   0  0  0  0  0  0  0  0  0  0  0  0
  -10.4697  -70.9074  -20.3567 C   0  0  0  0  0  0  0  0  0  0  0  0
  -10.8117  -70.8248  -19.0216 C   0  0  0  0  0  0  0  0  0  0  0  0
   -9.7624  -70.9060  -18.1193 N   0  0  0  0  0  0  0  0  0  0  0  0
   -8.6307  -70.9846  -18.7829 C   0  0  0  0  0  0  0  0  0  0  0  0
   -8.7499  -70.9826  -20.4852 S   0  0  0  0  0  0  0  0  0  0  0  0
  1  2  1  0
  2  3  1  0
  4  3  1  6
  4  5  1  0
  5  6  1  0
  5  7  1  0
  4  8  1  0
  8  9  1  6
  8 10  1  0
 10 11  2  0
 11 12  1  0
 12 13  2  0
 13 14  1  0
 14 10  1  0
M  END
>  <SLURM_JOB_NAME>  (180) 
BulkDock.place:Flavi_NS5_RdRp:RdRp_knitwork_thumb_site_2_impure_split4000_batch000

>  <fragmenstein_error>  (180) 
['']

>  <HIPPO Compound ID>  (180) 
6219

>  <alias>  (180) 
None

>  <energy_score>  (180) 
-48.730295

>  <exports>  (180) 
['/opt/xchem-fragalysis-2/maxwin/BulkDock/OUTPUTS/RdRp_knitwork_thumb_site_2_impure_split4000_batch000_211013.sdf']

>  <fragmenstein_outcome>  (180) 
['acceptable']

>  <fragmenstein_mode>  (180) 
['expansion']

>  <HIPPO Pose ID>  (180) 
51710

>  <name>  (180) 
VSIMLMGGLHKOHQ-UWVGGRQHSA-N

>  <fragmenstein_runtime>  (180) 
[1.3822858333587646]

>  <csv_name>  (180) 
RdRp_knitwork_thumb_site_2_impure_split4000_batch000.csv

>  <inchikey>  (180) 
VSIMLMGGLHKOHQ-UWVGGRQHSA-N

>  <original SMILES>  (180) 
CCO[C@@H](C(C)C)[C@@H](O)c1cncs1

>  <scratch_subdir>  (180) 
['/opt/xchem-fragalysis-2/maxwin/BulkDock/SCRATCH/211013/C6219-P50']

>  <tags>  (180) 
['Fragmenstein placed']

>  <distance_score>  (180) 
0.914639

>  <original ID>  (180) 
VSIMLMGGLHKOHQ-UWVGGRQHSA-N

>  <ref_mols>  (180) 
d0174a,d0615a

>  <SLURM_JOB_ID>  (180) 
211013

>  <ref_pdb>  (180) 
d0615a

$$$$
51716
     RDKit          3D

 13 13  0  0  0  0  0  0  0  0999 V2000
  -14.1076  -71.6396  -21.8896 C   0  0  0  0  0  0  0  0  0  0  0  0
  -13.3904  -70.8588  -20.7761 C   0  0  1  0  0  0  0  0  0  0  0  0
  -13.5221  -71.6733  -19.5974 O   0  0  0  0  0  0  0  0  0  0  0  0
  -11.9577  -70.5017  -21.2422 C   0  0  0  0  0  0  0  0  0  0  0  0
  -11.7751  -70.0981  -22.3943 O   0  0  0  0  0  0  0  0  0  0  0  0
  -10.8094  -70.6984  -20.3337 C   0  0  0  0  0  0  0  0  0  0  0  0
  -10.8422  -70.9158  -18.9665 C   0  0  0  0  0  0  0  0  0  0  0  0
   -9.2685  -71.2189  -18.3501 S   0  0  0  0  0  0  0  0  0  0  0  0
   -8.6298  -70.9324  -19.9116 C   0  0  0  0  0  0  0  0  0  0  0  0
   -9.5127  -70.6929  -20.8530 N   0  0  0  0  0  0  0  0  0  0  0  0
  -14.1126  -69.5303  -20.5311 C   0  0  0  0  0  0  0  0  0  0  0  0
  -14.4998  -68.9444  -21.6851 F   0  0  0  0  0  0  0  0  0  0  0  0
  -13.3063  -68.6578  -19.8777 F   0  0  0  0  0  0  0  0  0  0  0  0
  2  1  1  6
  2  3  1  0
  2  4  1  0
  4  5  2  0
  4  6  1  0
  6  7  2  0
  7  8  1  0
  8  9  1  0
  9 10  2  0
  2 11  1  0
 11 12  1  0
 11 13  1  0
 10  6  1  0
M  END
>  <SLURM_JOB_NAME>  (181) 
BulkDock.place:Flavi_NS5_RdRp:RdRp_knitwork_thumb_site_2_impure_split4000_batch000

>  <fragmenstein_error>  (181) 
['']

>  <HIPPO Compound ID>  (181) 
6222

>  <alias>  (181) 
None

>  <energy_score>  (181) 
-51.803269

>  <exports>  (181) 
['/opt/xchem-fragalysis-2/maxwin/BulkDock/OUTPUTS/RdRp_knitwork_thumb_site_2_impure_split4000_batch000_211013.sdf']

>  <fragmenstein_outcome>  (181) 
['acceptable']

>  <fragmenstein_mode>  (181) 
['expansion']

>  <HIPPO Pose ID>  (181) 
51716

>  <name>  (181) 
SBGSLNWCMNNBMS-SSDOTTSWSA-N

>  <fragmenstein_runtime>  (181) 
[2.193608283996582]

>  <csv_name>  (181) 
RdRp_knitwork_thumb_site_2_impure_split4000_batch000.csv

>  <inchikey>  (181) 
SBGSLNWCMNNBMS-SSDOTTSWSA-N

>  <original SMILES>  (181) 
C[C@@](O)(C(=O)c1cscn1)C(F)F

>  <scratch_subdir>  (181) 
['/opt/xchem-fragalysis-2/maxwin/BulkDock/SCRATCH/211013/C6222-P17']

>  <tags>  (181) 
['Fragmenstein placed']

>  <distance_score>  (181) 
0.719627

>  <original ID>  (181) 
SBGSLNWCMNNBMS-SSDOTTSWSA-N

>  <ref_mols>  (181) 
d0174a,d0615a

>  <SLURM_JOB_ID>  (181) 
211013

>  <ref_pdb>  (181) 
d0174a

$$$$
51717
     RDKit          3D

 13 13  0  0  0  0  0  0  0  0999 V2000
  -14.0339  -71.6597  -21.9268 C   0  0  0  0  0  0  0  0  0  0  0  0
  -13.3388  -70.8995  -20.7858 C   0  0  1  0  0  0  0  0  0  0  0  0
  -13.4333  -71.7690  -19.6400 O   0  0  0  0  0  0  0  0  0  0  0  0
  -11.9160  -70.4869  -21.2335 C   0  0  0  0  0  0  0  0  0  0  0  0
  -11.7316  -70.0607  -22.3766 O   0  0  0  0  0  0  0  0  0  0  0  0
  -10.7746  -70.6673  -20.3143 C   0  0  0  0  0  0  0  0  0  0  0  0
  -10.8218  -70.8571  -18.9434 C   0  0  0  0  0  0  0  0  0  0  0  0
   -9.2572  -71.1703  -18.3108 S   0  0  0  0  0  0  0  0  0  0  0  0
   -8.6019  -70.9074  -19.8699 C   0  0  0  0  0  0  0  0  0  0  0  0
   -9.4746  -70.6775  -20.8232 N   0  0  0  0  0  0  0  0  0  0  0  0
  -14.1011  -69.6037  -20.4919 C   0  0  0  0  0  0  0  0  0  0  0  0
  -14.5018  -68.9850  -21.6242 F   0  0  0  0  0  0  0  0  0  0  0  0
  -13.3230  -68.7313  -19.8045 F   0  0  0  0  0  0  0  0  0  0  0  0
  2  1  1  6
  2  3  1  0
  2  4  1  0
  4  5  2  0
  4  6  1  0
  6  7  2  0
  7  8  1  0
  8  9  1  0
  9 10  2  0
  2 11  1  0
 11 12  1  0
 11 13  1  0
 10  6  1  0
M  END
>  <SLURM_JOB_NAME>  (182) 
BulkDock.place:Flavi_NS5_RdRp:RdRp_knitwork_thumb_site_2_impure_split4000_batch000

>  <fragmenstein_error>  (182) 
['']

>  <HIPPO Compound ID>  (182) 
6222

>  <alias>  (182) 
None

>  <energy_score>  (182) 
-52.183199

>  <exports>  (182) 
['/opt/xchem-fragalysis-2/maxwin/BulkDock/OUTPUTS/RdRp_knitwork_thumb_site_2_impure_split4000_batch000_211013.sdf']

>  <fragmenstein_outcome>  (182) 
['acceptable']

>  <fragmenstein_mode>  (182) 
['expansion']

>  <HIPPO Pose ID>  (182) 
51717

>  <name>  (182) 
SBGSLNWCMNNBMS-SSDOTTSWSA-N

>  <fragmenstein_runtime>  (182) 
[1.8522944450378418]

>  <csv_name>  (182) 
RdRp_knitwork_thumb_site_2_impure_split4000_batch000.csv

>  <inchikey>  (182) 
SBGSLNWCMNNBMS-SSDOTTSWSA-N

>  <original SMILES>  (182) 
C[C@@](O)(C(=O)c1cscn1)C(F)F

>  <scratch_subdir>  (182) 
['/opt/xchem-fragalysis-2/maxwin/BulkDock/SCRATCH/211013/C6222-P50']

>  <tags>  (182) 
['Fragmenstein placed']

>  <distance_score>  (182) 
0.71375

>  <original ID>  (182) 
SBGSLNWCMNNBMS-SSDOTTSWSA-N

>  <ref_mols>  (182) 
d0174a,d0615a

>  <SLURM_JOB_ID>  (182) 
211013

>  <ref_pdb>  (182) 
d0615a

$$$$
51737
     RDKit          3D

 13 13  0  0  0  0  0  0  0  0999 V2000
  -15.6166  -69.9633  -24.0170 C   0  0  0  0  0  0  0  0  0  0  0  0
  -15.4287  -70.4844  -22.6020 C   0  0  0  0  0  0  0  0  0  0  0  0
  -14.9950  -71.9447  -22.6564 C   0  0  0  0  0  0  0  0  0  0  0  0
  -14.4901  -69.6339  -21.9507 O   0  0  0  0  0  0  0  0  0  0  0  0
  -14.3134  -69.8457  -20.5620 C   0  0  0  0  0  0  0  0  0  0  0  0
  -13.1214  -70.7458  -20.2257 C   0  0  0  0  0  0  0  0  0  0  0  0
  -11.7947  -70.1458  -20.6867 C   0  0  2  0  0  0  0  0  0  0  0  0
  -11.6460  -70.2944  -22.1000 O   0  0  0  0  0  0  0  0  0  0  0  0
  -10.5749  -70.7028  -19.9981 C   0  0  0  0  0  0  0  0  0  0  0  0
  -10.4886  -71.5045  -18.8745 C   0  0  0  0  0  0  0  0  0  0  0  0
   -8.8488  -71.8188  -18.4860 S   0  0  0  0  0  0  0  0  0  0  0  0
   -8.3700  -70.9004  -19.8508 C   0  0  0  0  0  0  0  0  0  0  0  0
   -9.3425  -70.3698  -20.5570 N   0  0  0  0  0  0  0  0  0  0  0  0
  1  2  1  0
  2  3  1  0
  2  4  1  0
  4  5  1  0
  5  6  1  0
  6  7  1  0
  7  8  1  6
  7  9  1  0
  9 10  2  0
 10 11  1  0
 11 12  1  0
 12 13  2  0
 13  9  1  0
M  END
>  <SLURM_JOB_NAME>  (183) 
BulkDock.place:Flavi_NS5_RdRp:RdRp_knitwork_thumb_site_2_impure_split4000_batch000

>  <fragmenstein_error>  (183) 
['']

>  <HIPPO Compound ID>  (183) 
6273

>  <alias>  (183) 
None

>  <energy_score>  (183) 
-35.164801

>  <exports>  (183) 
['/opt/xchem-fragalysis-2/maxwin/BulkDock/OUTPUTS/RdRp_knitwork_thumb_site_2_impure_split4000_batch000_211013.sdf']

>  <fragmenstein_outcome>  (183) 
['acceptable']

>  <fragmenstein_mode>  (183) 
['expansion']

>  <HIPPO Pose ID>  (183) 
51737

>  <name>  (183) 
AOWJXMAYIWOZBH-VIFPVBQESA-N

>  <fragmenstein_runtime>  (183) 
[1.251389980316162]

>  <csv_name>  (183) 
RdRp_knitwork_thumb_site_2_impure_split4000_batch000.csv

>  <inchikey>  (183) 
AOWJXMAYIWOZBH-VIFPVBQESA-N

>  <original SMILES>  (183) 
CC(C)OCC[C@H](O)c1cscn1

>  <scratch_subdir>  (183) 
['/opt/xchem-fragalysis-2/maxwin/BulkDock/SCRATCH/211013/C6273-P17']

>  <tags>  (183) 
['Fragmenstein placed']

>  <distance_score>  (183) 
0.8035

>  <original ID>  (183) 
AOWJXMAYIWOZBH-VIFPVBQESA-N

>  <ref_mols>  (183) 
d0174a,d0615a

>  <SLURM_JOB_ID>  (183) 
211013

>  <ref_pdb>  (183) 
d0174a

$$$$
51740
     RDKit          3D

 13 13  0  0  0  0  0  0  0  0999 V2000
  -16.3346  -70.1626  -23.0872 C   0  0  0  0  0  0  0  0  0  0  0  0
  -14.8241  -70.2515  -22.9054 C   0  0  0  0  0  0  0  0  0  0  0  0
  -14.0892  -69.7712  -24.1465 C   0  0  0  0  0  0  0  0  0  0  0  0
  -14.4414  -69.4185  -21.8090 O   0  0  0  0  0  0  0  0  0  0  0  0
  -14.3542  -70.0912  -20.5634 C   0  0  0  0  0  0  0  0  0  0  0  0
  -13.1038  -70.9656  -20.4310 C   0  0  0  0  0  0  0  0  0  0  0  0
  -11.8254  -70.1571  -20.6652 C   0  0  2  0  0  0  0  0  0  0  0  0
  -11.5140  -70.1620  -22.0649 O   0  0  0  0  0  0  0  0  0  0  0  0
  -10.6350  -70.6603  -19.8876 C   0  0  0  0  0  0  0  0  0  0  0  0
  -10.5812  -71.0597  -18.5651 C   0  0  0  0  0  0  0  0  0  0  0  0
   -8.9870  -71.5285  -18.1471 S   0  0  0  0  0  0  0  0  0  0  0  0
   -8.4725  -71.1209  -19.7306 C   0  0  0  0  0  0  0  0  0  0  0  0
   -9.4074  -70.6919  -20.5482 N   0  0  0  0  0  0  0  0  0  0  0  0
  1  2  1  0
  2  3  1  0
  2  4  1  0
  4  5  1  0
  5  6  1  0
  6  7  1  0
  7  8  1  6
  7  9  1  0
  9 10  2  0
 10 11  1  0
 11 12  1  0
 12 13  2  0
 13  9  1  0
M  END
>  <SLURM_JOB_NAME>  (184) 
BulkDock.place:Flavi_NS5_RdRp:RdRp_knitwork_thumb_site_2_impure_split4000_batch000

>  <fragmenstein_error>  (184) 
['']

>  <HIPPO Compound ID>  (184) 
6273

>  <alias>  (184) 
None

>  <energy_score>  (184) 
-37.472346

>  <exports>  (184) 
['/opt/xchem-fragalysis-2/maxwin/BulkDock/OUTPUTS/RdRp_knitwork_thumb_site_2_impure_split4000_batch000_211013.sdf']

>  <fragmenstein_outcome>  (184) 
['acceptable']

>  <fragmenstein_mode>  (184) 
['expansion']

>  <HIPPO Pose ID>  (184) 
51740

>  <name>  (184) 
AOWJXMAYIWOZBH-VIFPVBQESA-N

>  <fragmenstein_runtime>  (184) 
[1.403916835784912]

>  <csv_name>  (184) 
RdRp_knitwork_thumb_site_2_impure_split4000_batch000.csv

>  <inchikey>  (184) 
AOWJXMAYIWOZBH-VIFPVBQESA-N

>  <original SMILES>  (184) 
CC(C)OCC[C@H](O)c1cscn1

>  <scratch_subdir>  (184) 
['/opt/xchem-fragalysis-2/maxwin/BulkDock/SCRATCH/211013/C6273-P50']

>  <tags>  (184) 
['Fragmenstein placed']

>  <distance_score>  (184) 
0.843047

>  <original ID>  (184) 
AOWJXMAYIWOZBH-VIFPVBQESA-N

>  <ref_mols>  (184) 
d0174a,d0615a

>  <SLURM_JOB_ID>  (184) 
211013

>  <ref_pdb>  (184) 
d0615a

$$$$
51741
     RDKit          3D

 12 12  0  0  0  0  0  0  0  0999 V2000
  -14.4717  -68.9085  -21.1539 C   0  0  0  0  0  0  0  0  0  0  0  0
  -13.8514  -70.0206  -20.3130 C   0  0  0  0  0  0  0  0  0  0  0  0
  -13.1138  -71.0994  -21.1337 C   0  0  1  0  0  0  0  0  0  0  0  0
  -13.1798  -72.4733  -20.4632 C   0  0  0  0  0  0  0  0  0  0  0  0
  -13.8235  -71.2819  -22.3784 O   0  0  0  0  0  0  0  0  0  0  0  0
  -11.6650  -70.6453  -21.4686 C   0  0  0  0  0  0  0  0  0  0  0  0
  -11.4834  -70.1013  -22.5665 O   0  0  0  0  0  0  0  0  0  0  0  0
  -10.5453  -70.8431  -20.5279 C   0  0  0  0  0  0  0  0  0  0  0  0
  -10.6247  -71.0543  -19.1618 C   0  0  0  0  0  0  0  0  0  0  0  0
   -9.0673  -71.3184  -18.4883 S   0  0  0  0  0  0  0  0  0  0  0  0
   -8.3771  -71.0336  -20.0296 C   0  0  0  0  0  0  0  0  0  0  0  0
   -9.2310  -70.8059  -21.0005 N   0  0  0  0  0  0  0  0  0  0  0  0
  1  2  1  0
  2  3  1  0
  3  4  1  1
  3  5  1  0
  3  6  1  0
  6  7  2  0
  6  8  1  0
  8  9  2  0
  9 10  1  0
 10 11  1  0
 11 12  2  0
 12  8  1  0
M  END
>  <SLURM_JOB_NAME>  (185) 
BulkDock.place:Flavi_NS5_RdRp:RdRp_knitwork_thumb_site_2_impure_split4000_batch000

>  <fragmenstein_error>  (185) 
['']

>  <HIPPO Compound ID>  (185) 
6277

>  <alias>  (185) 
None

>  <energy_score>  (185) 
-105.923054

>  <exports>  (185) 
['/opt/xchem-fragalysis-2/maxwin/BulkDock/OUTPUTS/RdRp_knitwork_thumb_site_2_impure_split4000_batch000_211013.sdf']

>  <fragmenstein_outcome>  (185) 
['acceptable']

>  <fragmenstein_mode>  (185) 
['expansion']

>  <HIPPO Pose ID>  (185) 
51741

>  <name>  (185) 
NJQGVFFAWWMCEK-MRVPVSSYSA-N

>  <fragmenstein_runtime>  (185) 
[1.2398624420166016]

>  <csv_name>  (185) 
RdRp_knitwork_thumb_site_2_impure_split4000_batch000.csv

>  <inchikey>  (185) 
NJQGVFFAWWMCEK-MRVPVSSYSA-N

>  <original SMILES>  (185) 
CC[C@@](C)(O)C(=O)c1cscn1

>  <scratch_subdir>  (185) 
['/opt/xchem-fragalysis-2/maxwin/BulkDock/SCRATCH/211013/C6277-P17']

>  <tags>  (185) 
['Fragmenstein placed']

>  <distance_score>  (185) 
0.78176

>  <original ID>  (185) 
NJQGVFFAWWMCEK-MRVPVSSYSA-N

>  <ref_mols>  (185) 
d0174a,d0615a

>  <SLURM_JOB_ID>  (185) 
211013

>  <ref_pdb>  (185) 
d0174a

$$$$
51742
     RDKit          3D

 12 12  0  0  0  0  0  0  0  0999 V2000
  -15.1509  -69.4642  -20.7886 C   0  0  0  0  0  0  0  0  0  0  0  0
  -13.6643  -69.6742  -20.5182 C   0  0  0  0  0  0  0  0  0  0  0  0
  -13.0253  -70.8077  -21.3431 C   0  0  1  0  0  0  0  0  0  0  0  0
  -13.3442  -72.2026  -20.8137 C   0  0  0  0  0  0  0  0  0  0  0  0
  -13.6175  -70.7747  -22.6653 O   0  0  0  0  0  0  0  0  0  0  0  0
  -11.5120  -70.5410  -21.5405 C   0  0  0  0  0  0  0  0  0  0  0  0
  -11.1739  -70.0266  -22.6163 O   0  0  0  0  0  0  0  0  0  0  0  0
  -10.5079  -70.8348  -20.5032 C   0  0  0  0  0  0  0  0  0  0  0  0
  -10.7305  -71.1106  -19.1656 C   0  0  0  0  0  0  0  0  0  0  0  0
   -9.2499  -71.4119  -18.3459 S   0  0  0  0  0  0  0  0  0  0  0  0
   -8.4037  -71.1044  -19.8020 C   0  0  0  0  0  0  0  0  0  0  0  0
   -9.1515  -70.8188  -20.8415 N   0  0  0  0  0  0  0  0  0  0  0  0
  1  2  1  0
  2  3  1  0
  3  4  1  1
  3  5  1  0
  3  6  1  0
  6  7  2  0
  6  8  1  0
  8  9  2  0
  9 10  1  0
 10 11  1  0
 11 12  2  0
 12  8  1  0
M  END
>  <SLURM_JOB_NAME>  (186) 
BulkDock.place:Flavi_NS5_RdRp:RdRp_knitwork_thumb_site_2_impure_split4000_batch000

>  <fragmenstein_error>  (186) 
['']

>  <HIPPO Compound ID>  (186) 
6277

>  <alias>  (186) 
None

>  <energy_score>  (186) 
-106.347099

>  <exports>  (186) 
['/opt/xchem-fragalysis-2/maxwin/BulkDock/OUTPUTS/RdRp_knitwork_thumb_site_2_impure_split4000_batch000_211013.sdf']

>  <fragmenstein_outcome>  (186) 
['acceptable']

>  <fragmenstein_mode>  (186) 
['expansion']

>  <HIPPO Pose ID>  (186) 
51742

>  <name>  (186) 
NJQGVFFAWWMCEK-MRVPVSSYSA-N

>  <fragmenstein_runtime>  (186) 
[1.1589455604553223]

>  <csv_name>  (186) 
RdRp_knitwork_thumb_site_2_impure_split4000_batch000.csv

>  <inchikey>  (186) 
NJQGVFFAWWMCEK-MRVPVSSYSA-N

>  <original SMILES>  (186) 
CC[C@@](C)(O)C(=O)c1cscn1

>  <scratch_subdir>  (186) 
['/opt/xchem-fragalysis-2/maxwin/BulkDock/SCRATCH/211013/C6277-P50']

>  <tags>  (186) 
['Fragmenstein placed']

>  <distance_score>  (186) 
0.723017

>  <original ID>  (186) 
NJQGVFFAWWMCEK-MRVPVSSYSA-N

>  <ref_mols>  (186) 
d0174a,d0615a

>  <SLURM_JOB_ID>  (186) 
211013

>  <ref_pdb>  (186) 
d0615a

$$$$
51743
     RDKit          3D

 12 12  0  0  0  0  0  0  0  0999 V2000
  -15.2330  -69.8114  -20.8944 C   0  0  0  0  0  0  0  0  0  0  0  0
  -13.7405  -69.7957  -20.7890 C   0  0  0  0  0  0  0  0  0  0  0  0
  -13.1912  -68.6518  -20.2571 O   0  0  0  0  0  0  0  0  0  0  0  0
  -12.9674  -70.7831  -21.2626 C   0  0  0  0  0  0  0  0  0  0  0  0
  -11.5279  -70.5407  -21.5074 C   0  0  0  0  0  0  0  0  0  0  0  0
  -11.1860  -70.1380  -22.6169 O   0  0  0  0  0  0  0  0  0  0  0  0
  -10.5217  -70.8431  -20.4584 C   0  0  0  0  0  0  0  0  0  0  0  0
  -10.8556  -71.4121  -19.2312 C   0  0  0  0  0  0  0  0  0  0  0  0
   -9.8285  -71.6802  -18.3410 C   0  0  0  0  0  0  0  0  0  0  0  0
   -8.5268  -71.4207  -18.5866 N   0  0  0  0  0  0  0  0  0  0  0  0
   -8.2300  -70.8719  -19.7853 C   0  0  0  0  0  0  0  0  0  0  0  0
   -9.1807  -70.5670  -20.7418 C   0  0  0  0  0  0  0  0  0  0  0  0
  1  2  1  0
  2  3  1  0
  2  4  2  3
  4  5  1  0
  5  6  2  0
  5  7  1  0
  7  8  2  0
  8  9  1  0
  9 10  2  0
 10 11  1  0
 11 12  2  0
 12  7  1  0
M  END
>  <SLURM_JOB_NAME>  (187) 
BulkDock.place:Flavi_NS5_RdRp:RdRp_knitwork_thumb_site_2_impure_split4000_batch000

>  <fragmenstein_error>  (187) 
['']

>  <HIPPO Compound ID>  (187) 
6302

>  <alias>  (187) 
None

>  <energy_score>  (187) 
-20.617427

>  <exports>  (187) 
['/opt/xchem-fragalysis-2/maxwin/BulkDock/OUTPUTS/RdRp_knitwork_thumb_site_2_impure_split4000_batch000_211013.sdf']

>  <fragmenstein_outcome>  (187) 
['acceptable']

>  <fragmenstein_mode>  (187) 
['expansion']

>  <HIPPO Pose ID>  (187) 
51743

>  <name>  (187) 
BKBUSWFMLIEBFW-UHFFFAOYSA-N

>  <fragmenstein_runtime>  (187) 
[1.8961222171783447]

>  <csv_name>  (187) 
RdRp_knitwork_thumb_site_2_impure_split4000_batch000.csv

>  <inchikey>  (187) 
BKBUSWFMLIEBFW-UHFFFAOYSA-N

>  <original SMILES>  (187) 
CC(O)=CC(=O)c1ccncc1

>  <scratch_subdir>  (187) 
['/opt/xchem-fragalysis-2/maxwin/BulkDock/SCRATCH/211013/C6302-P17']

>  <tags>  (187) 
['Fragmenstein placed']

>  <distance_score>  (187) 
0.70403

>  <original ID>  (187) 
BKBUSWFMLIEBFW-UHFFFAOYSA-N

>  <ref_mols>  (187) 
d0174a,d0615a

>  <SLURM_JOB_ID>  (187) 
211013

>  <ref_pdb>  (187) 
d0174a

$$$$
51744
     RDKit          3D

 12 12  0  0  0  0  0  0  0  0999 V2000
  -15.2581  -69.8763  -20.8373 C   0  0  0  0  0  0  0  0  0  0  0  0
  -13.7645  -69.7920  -20.7891 C   0  0  0  0  0  0  0  0  0  0  0  0
  -13.2475  -68.5974  -20.3429 O   0  0  0  0  0  0  0  0  0  0  0  0
  -12.9642  -70.7767  -21.2206 C   0  0  0  0  0  0  0  0  0  0  0  0
  -11.5306  -70.5130  -21.4762 C   0  0  0  0  0  0  0  0  0  0  0  0
  -11.1911  -70.1252  -22.5916 O   0  0  0  0  0  0  0  0  0  0  0  0
  -10.5196  -70.7925  -20.4245 C   0  0  0  0  0  0  0  0  0  0  0  0
  -10.8551  -71.2821  -19.1640 C   0  0  0  0  0  0  0  0  0  0  0  0
   -9.8251  -71.5375  -18.2735 C   0  0  0  0  0  0  0  0  0  0  0  0
   -8.5178  -71.3394  -18.5487 N   0  0  0  0  0  0  0  0  0  0  0  0
   -8.2211  -70.8591  -19.7768 C   0  0  0  0  0  0  0  0  0  0  0  0
   -9.1744  -70.5717  -20.7362 C   0  0  0  0  0  0  0  0  0  0  0  0
  1  2  1  0
  2  3  1  0
  2  4  2  3
  4  5  1  0
  5  6  2  0
  5  7  1  0
  7  8  2  0
  8  9  1  0
  9 10  2  0
 10 11  1  0
 11 12  2  0
 12  7  1  0
M  END
>  <SLURM_JOB_NAME>  (188) 
BulkDock.place:Flavi_NS5_RdRp:RdRp_knitwork_thumb_site_2_impure_split4000_batch000

>  <fragmenstein_error>  (188) 
['']

>  <HIPPO Compound ID>  (188) 
6302

>  <alias>  (188) 
None

>  <energy_score>  (188) 
-21.077995

>  <exports>  (188) 
['/opt/xchem-fragalysis-2/maxwin/BulkDock/OUTPUTS/RdRp_knitwork_thumb_site_2_impure_split4000_batch000_211013.sdf']

>  <fragmenstein_outcome>  (188) 
['acceptable']

>  <fragmenstein_mode>  (188) 
['expansion']

>  <HIPPO Pose ID>  (188) 
51744

>  <name>  (188) 
BKBUSWFMLIEBFW-UHFFFAOYSA-N

>  <fragmenstein_runtime>  (188) 
[1.429931402206421]

>  <csv_name>  (188) 
RdRp_knitwork_thumb_site_2_impure_split4000_batch000.csv

>  <inchikey>  (188) 
BKBUSWFMLIEBFW-UHFFFAOYSA-N

>  <original SMILES>  (188) 
CC(O)=CC(=O)c1ccncc1

>  <scratch_subdir>  (188) 
['/opt/xchem-fragalysis-2/maxwin/BulkDock/SCRATCH/211013/C6302-P50']

>  <tags>  (188) 
['Fragmenstein placed']

>  <distance_score>  (188) 
0.722913

>  <original ID>  (188) 
BKBUSWFMLIEBFW-UHFFFAOYSA-N

>  <ref_mols>  (188) 
d0174a,d0615a

>  <SLURM_JOB_ID>  (188) 
211013

>  <ref_pdb>  (188) 
d0615a

$$$$
51745
     RDKit          3D

 15 15  0  0  0  0  0  0  0  0999 V2000
  -16.0541  -69.9136  -23.6866 C   0  0  0  0  0  0  0  0  0  0  0  0
  -14.9093  -69.5344  -22.7587 C   0  0  0  0  0  0  0  0  0  0  0  0
  -15.2317  -69.9331  -21.3280 C   0  0  0  0  0  0  0  0  0  0  0  0
  -13.8425  -69.8321  -20.2131 S   0  0  0  0  0  0  0  0  0  0  0  0
  -13.2275  -68.5354  -20.3368 O   0  0  0  0  0  0  0  0  0  0  0  0
  -14.2716  -70.3375  -18.9227 O   0  0  0  0  0  0  0  0  0  0  0  0
  -12.8277  -70.9997  -20.8466 N   0  0  0  0  0  0  0  0  0  0  0  0
  -11.4974  -70.6083  -21.3499 C   0  0  2  0  0  0  0  0  0  0  0  0
  -11.2951  -71.3331  -22.6823 C   0  0  0  0  0  0  0  0  0  0  0  0
  -10.3551  -70.8886  -20.3934 C   0  0  0  0  0  0  0  0  0  0  0  0
  -10.5120  -71.4921  -19.1394 C   0  0  0  0  0  0  0  0  0  0  0  0
   -9.3981  -71.7559  -18.3430 C   0  0  0  0  0  0  0  0  0  0  0  0
   -8.1502  -71.3947  -18.8164 C   0  0  0  0  0  0  0  0  0  0  0  0
   -7.9534  -70.7796  -19.9980 N   0  0  0  0  0  0  0  0  0  0  0  0
   -9.0516  -70.5358  -20.7498 C   0  0  0  0  0  0  0  0  0  0  0  0
  1  2  1  0
  2  3  1  0
  3  4  1  0
  4  5  2  0
  4  6  2  0
  4  7  1  0
  7  8  1  0
  8  9  1  6
  8 10  1  0
 10 11  2  0
 11 12  1  0
 12 13  2  0
 13 14  1  0
 14 15  2  0
 15 10  1  0
M  END
>  <SLURM_JOB_NAME>  (189) 
BulkDock.place:Flavi_NS5_RdRp:RdRp_knitwork_thumb_site_2_impure_split4000_batch000

>  <fragmenstein_error>  (189) 
['']

>  <HIPPO Compound ID>  (189) 
6353

>  <alias>  (189) 
None

>  <energy_score>  (189) 
-47.327946

>  <exports>  (189) 
['/opt/xchem-fragalysis-2/maxwin/BulkDock/OUTPUTS/RdRp_knitwork_thumb_site_2_impure_split4000_batch000_211013.sdf']

>  <fragmenstein_outcome>  (189) 
['acceptable']

>  <fragmenstein_mode>  (189) 
['expansion']

>  <HIPPO Pose ID>  (189) 
51745

>  <name>  (189) 
BXUSHCNUMJPCGE-SECBINFHSA-N

>  <fragmenstein_runtime>  (189) 
[1.8789036273956299]

>  <csv_name>  (189) 
RdRp_knitwork_thumb_site_2_impure_split4000_batch000.csv

>  <inchikey>  (189) 
BXUSHCNUMJPCGE-SECBINFHSA-N

>  <original SMILES>  (189) 
CCCS(=O)(=O)N[C@H](C)c1cccnc1

>  <scratch_subdir>  (189) 
['/opt/xchem-fragalysis-2/maxwin/BulkDock/SCRATCH/211013/C6353-P17']

>  <tags>  (189) 
['Fragmenstein placed']

>  <distance_score>  (189) 
0.875711

>  <original ID>  (189) 
BXUSHCNUMJPCGE-SECBINFHSA-N

>  <ref_mols>  (189) 
d0174a,d0615a

>  <SLURM_JOB_ID>  (189) 
211013

>  <ref_pdb>  (189) 
d0174a

$$$$
51748
     RDKit          3D

 15 15  0  0  0  0  0  0  0  0999 V2000
  -16.1362  -69.9023  -23.5782 C   0  0  0  0  0  0  0  0  0  0  0  0
  -14.9716  -69.5282  -22.6730 C   0  0  0  0  0  0  0  0  0  0  0  0
  -15.2745  -69.9181  -21.2343 C   0  0  0  0  0  0  0  0  0  0  0  0
  -13.8552  -69.8593  -20.1506 S   0  0  0  0  0  0  0  0  0  0  0  0
  -13.2440  -68.5576  -20.2394 O   0  0  0  0  0  0  0  0  0  0  0  0
  -14.2423  -70.4206  -18.8700 O   0  0  0  0  0  0  0  0  0  0  0  0
  -12.8507  -70.9979  -20.8543 N   0  0  0  0  0  0  0  0  0  0  0  0
  -11.5303  -70.5774  -21.3628 C   0  0  2  0  0  0  0  0  0  0  0  0
  -11.3262  -71.2869  -22.7036 C   0  0  0  0  0  0  0  0  0  0  0  0
  -10.3755  -70.8473  -20.4173 C   0  0  0  0  0  0  0  0  0  0  0  0
  -10.5176  -71.4489  -19.1604 C   0  0  0  0  0  0  0  0  0  0  0  0
   -9.3959  -71.7043  -18.3724 C   0  0  0  0  0  0  0  0  0  0  0  0
   -8.1541  -71.3365  -18.8564 C   0  0  0  0  0  0  0  0  0  0  0  0
   -7.9707  -70.7231  -20.0410 N   0  0  0  0  0  0  0  0  0  0  0  0
   -9.0769  -70.4864  -20.7841 C   0  0  0  0  0  0  0  0  0  0  0  0
  1  2  1  0
  2  3  1  0
  3  4  1  0
  4  5  2  0
  4  6  2  0
  4  7  1  0
  7  8  1  0
  8  9  1  6
  8 10  1  0
 10 11  2  0
 11 12  1  0
 12 13  2  0
 13 14  1  0
 14 15  2  0
 15 10  1  0
M  END
>  <SLURM_JOB_NAME>  (190) 
BulkDock.place:Flavi_NS5_RdRp:RdRp_knitwork_thumb_site_2_impure_split4000_batch000

>  <fragmenstein_error>  (190) 
['']

>  <HIPPO Compound ID>  (190) 
6353

>  <alias>  (190) 
None

>  <energy_score>  (190) 
-47.517959

>  <exports>  (190) 
['/opt/xchem-fragalysis-2/maxwin/BulkDock/OUTPUTS/RdRp_knitwork_thumb_site_2_impure_split4000_batch000_211013.sdf']

>  <fragmenstein_outcome>  (190) 
['acceptable']

>  <fragmenstein_mode>  (190) 
['expansion']

>  <HIPPO Pose ID>  (190) 
51748

>  <name>  (190) 
BXUSHCNUMJPCGE-SECBINFHSA-N

>  <fragmenstein_runtime>  (190) 
[1.8419198989868164]

>  <csv_name>  (190) 
RdRp_knitwork_thumb_site_2_impure_split4000_batch000.csv

>  <inchikey>  (190) 
BXUSHCNUMJPCGE-SECBINFHSA-N

>  <original SMILES>  (190) 
CCCS(=O)(=O)N[C@H](C)c1cccnc1

>  <scratch_subdir>  (190) 
['/opt/xchem-fragalysis-2/maxwin/BulkDock/SCRATCH/211013/C6353-P50']

>  <tags>  (190) 
['Fragmenstein placed']

>  <distance_score>  (190) 
0.868567

>  <original ID>  (190) 
BXUSHCNUMJPCGE-SECBINFHSA-N

>  <ref_mols>  (190) 
d0174a,d0615a

>  <SLURM_JOB_ID>  (190) 
211013

>  <ref_pdb>  (190) 
d0615a

$$$$
51751
     RDKit          3D

 13 13  0  0  0  0  0  0  0  0999 V2000
  -14.8309  -69.3620  -22.9773 C   0  0  0  0  0  0  0  0  0  0  0  0
  -14.8359  -69.6915  -21.6798 C   0  0  0  0  0  0  0  0  0  0  0  0
  -13.7882  -69.2432  -20.7045 C   0  0  0  0  0  0  0  0  0  0  0  0
  -13.0304  -70.4545  -20.1991 C   0  0  0  0  0  0  0  0  0  0  0  0
  -13.4198  -71.0149  -19.1650 O   0  0  0  0  0  0  0  0  0  0  0  0
  -11.8491  -70.9836  -21.0577 C   0  0  1  0  0  0  0  0  0  0  0  0
  -11.6319  -70.2414  -22.2553 O   0  0  0  0  0  0  0  0  0  0  0  0
  -10.5502  -71.0982  -20.2765 C   0  0  0  0  0  0  0  0  0  0  0  0
  -10.4903  -71.8885  -19.1203 C   0  0  0  0  0  0  0  0  0  0  0  0
   -9.2884  -72.0063  -18.4392 C   0  0  0  0  0  0  0  0  0  0  0  0
   -8.1456  -71.4085  -18.8271 N   0  0  0  0  0  0  0  0  0  0  0  0
   -8.2052  -70.6718  -19.9571 C   0  0  0  0  0  0  0  0  0  0  0  0
   -9.3630  -70.4863  -20.7000 C   0  0  0  0  0  0  0  0  0  0  0  0
  1  2  2  0
  2  3  1  0
  3  4  1  0
  4  5  2  0
  4  6  1  0
  6  7  1  6
  6  8  1  0
  8  9  2  0
  9 10  1  0
 10 11  2  0
 11 12  1  0
 12 13  2  0
 13  8  1  0
M  END
>  <SLURM_JOB_NAME>  (191) 
BulkDock.place:Flavi_NS5_RdRp:RdRp_knitwork_thumb_site_2_impure_split4000_batch000

>  <fragmenstein_error>  (191) 
['']

>  <HIPPO Compound ID>  (191) 
6443

>  <alias>  (191) 
None

>  <energy_score>  (191) 
-27.08758

>  <exports>  (191) 
['/opt/xchem-fragalysis-2/maxwin/BulkDock/OUTPUTS/RdRp_knitwork_thumb_site_2_impure_split4000_batch000_211013.sdf']

>  <fragmenstein_outcome>  (191) 
['acceptable']

>  <fragmenstein_mode>  (191) 
['expansion']

>  <HIPPO Pose ID>  (191) 
51751

>  <name>  (191) 
LXVUYQBHMIMTPB-JTQLQIEISA-N

>  <fragmenstein_runtime>  (191) 
[1.2654883861541748]

>  <csv_name>  (191) 
RdRp_knitwork_thumb_site_2_impure_split4000_batch000.csv

>  <inchikey>  (191) 
LXVUYQBHMIMTPB-JTQLQIEISA-N

>  <original SMILES>  (191) 
C=CCC(=O)[C@@H](O)c1ccncc1

>  <scratch_subdir>  (191) 
['/opt/xchem-fragalysis-2/maxwin/BulkDock/SCRATCH/211013/C6443-P17']

>  <tags>  (191) 
['Fragmenstein placed']

>  <distance_score>  (191) 
0.676473

>  <original ID>  (191) 
LXVUYQBHMIMTPB-JTQLQIEISA-N

>  <ref_mols>  (191) 
d0174a,d0615a

>  <SLURM_JOB_ID>  (191) 
211013

>  <ref_pdb>  (191) 
d0174a

$$$$
51753
     RDKit          3D

 13 13  0  0  0  0  0  0  0  0999 V2000
  -14.7826  -69.3117  -22.9079 C   0  0  0  0  0  0  0  0  0  0  0  0
  -14.7997  -69.7164  -21.6319 C   0  0  0  0  0  0  0  0  0  0  0  0
  -13.7540  -69.3433  -20.6226 C   0  0  0  0  0  0  0  0  0  0  0  0
  -13.0014  -70.5924  -20.2066 C   0  0  0  0  0  0  0  0  0  0  0  0
  -13.4110  -71.2526  -19.2407 O   0  0  0  0  0  0  0  0  0  0  0  0
  -11.7838  -71.0271  -21.0672 C   0  0  1  0  0  0  0  0  0  0  0  0
  -11.5938  -70.2335  -22.2361 O   0  0  0  0  0  0  0  0  0  0  0  0
  -10.4897  -71.0989  -20.2718 C   0  0  0  0  0  0  0  0  0  0  0  0
  -10.4153  -71.8785  -19.1091 C   0  0  0  0  0  0  0  0  0  0  0  0
   -9.2149  -71.9588  -18.4196 C   0  0  0  0  0  0  0  0  0  0  0  0
   -8.0856  -71.3341  -18.8050 N   0  0  0  0  0  0  0  0  0  0  0  0
   -8.1576  -70.6102  -19.9425 C   0  0  0  0  0  0  0  0  0  0  0  0
   -9.3151  -70.4620  -20.6940 C   0  0  0  0  0  0  0  0  0  0  0  0
  1  2  2  0
  2  3  1  0
  3  4  1  0
  4  5  2  0
  4  6  1  0
  6  7  1  6
  6  8  1  0
  8  9  2  0
  9 10  1  0
 10 11  2  0
 11 12  1  0
 12 13  2  0
 13  8  1  0
M  END
>  <SLURM_JOB_NAME>  (192) 
BulkDock.place:Flavi_NS5_RdRp:RdRp_knitwork_thumb_site_2_impure_split4000_batch000

>  <fragmenstein_error>  (192) 
['']

>  <HIPPO Compound ID>  (192) 
6443

>  <alias>  (192) 
None

>  <energy_score>  (192) 
-27.231733

>  <exports>  (192) 
['/opt/xchem-fragalysis-2/maxwin/BulkDock/OUTPUTS/RdRp_knitwork_thumb_site_2_impure_split4000_batch000_211013.sdf']

>  <fragmenstein_outcome>  (192) 
['acceptable']

>  <fragmenstein_mode>  (192) 
['expansion']

>  <HIPPO Pose ID>  (192) 
51753

>  <name>  (192) 
LXVUYQBHMIMTPB-JTQLQIEISA-N

>  <fragmenstein_runtime>  (192) 
[1.2252399921417236]

>  <csv_name>  (192) 
RdRp_knitwork_thumb_site_2_impure_split4000_batch000.csv

>  <inchikey>  (192) 
LXVUYQBHMIMTPB-JTQLQIEISA-N

>  <original SMILES>  (192) 
C=CCC(=O)[C@@H](O)c1ccncc1

>  <scratch_subdir>  (192) 
['/opt/xchem-fragalysis-2/maxwin/BulkDock/SCRATCH/211013/C6443-P50']

>  <tags>  (192) 
['Fragmenstein placed']

>  <distance_score>  (192) 
0.64475

>  <original ID>  (192) 
LXVUYQBHMIMTPB-JTQLQIEISA-N

>  <ref_mols>  (192) 
d0174a,d0615a

>  <SLURM_JOB_ID>  (192) 
211013

>  <ref_pdb>  (192) 
d0615a

$$$$
51754
     RDKit          3D

 14 14  0  0  0  0  0  0  0  0999 V2000
  -13.8543  -71.4932  -23.5703 C   0  0  0  0  0  0  0  0  0  0  0  0
  -14.5289  -70.1856  -23.1826 C   0  0  0  0  0  0  0  0  0  0  0  0
  -15.0283  -70.1889  -21.7364 C   0  0  0  0  0  0  0  0  0  0  0  0
  -14.0819  -69.5174  -20.7493 C   0  0  0  0  0  0  0  0  0  0  0  0
  -12.9452  -70.3115  -20.2984 N   0  0  0  0  0  0  0  0  0  0  0  0
  -13.2505  -71.1162  -19.1886 O   0  0  0  0  0  0  0  0  0  0  0  0
  -11.6967  -70.2805  -20.8950 C   0  0  0  0  0  0  0  0  0  0  0  0
  -11.5243  -69.7033  -21.9708 O   0  0  0  0  0  0  0  0  0  0  0  0
  -10.5517  -71.0484  -20.2938 C   0  0  0  0  0  0  0  0  0  0  0  0
  -10.4035  -71.1544  -18.9110 C   0  0  0  0  0  0  0  0  0  0  0  0
   -9.2275  -71.6945  -18.3935 C   0  0  0  0  0  0  0  0  0  0  0  0
   -8.2148  -72.0726  -19.2637 C   0  0  0  0  0  0  0  0  0  0  0  0
   -8.4272  -71.9108  -20.6221 C   0  0  0  0  0  0  0  0  0  0  0  0
   -9.5673  -71.4184  -21.1529 N   0  0  0  0  0  0  0  0  0  0  0  0
  1  2  1  0
  2  3  1  0
  3  4  1  0
  4  5  1  0
  5  6  1  0
  5  7  1  0
  7  8  2  0
  7  9  1  0
  9 10  2  0
 10 11  1  0
 11 12  2  0
 12 13  1  0
 13 14  2  0
 14  9  1  0
M  END
>  <SLURM_JOB_NAME>  (193) 
BulkDock.place:Flavi_NS5_RdRp:RdRp_knitwork_thumb_site_2_impure_split4000_batch000

>  <fragmenstein_error>  (193) 
['']

>  <HIPPO Compound ID>  (193) 
6445

>  <alias>  (193) 
None

>  <energy_score>  (193) 
-25.193297

>  <exports>  (193) 
['/opt/xchem-fragalysis-2/maxwin/BulkDock/OUTPUTS/RdRp_knitwork_thumb_site_2_impure_split4000_batch000_211013.sdf']

>  <fragmenstein_outcome>  (193) 
['acceptable']

>  <fragmenstein_mode>  (193) 
['expansion']

>  <HIPPO Pose ID>  (193) 
51754

>  <name>  (193) 
ZTVBGTNBYSEBPC-UHFFFAOYSA-N

>  <fragmenstein_runtime>  (193) 
[1.9348533153533936]

>  <csv_name>  (193) 
RdRp_knitwork_thumb_site_2_impure_split4000_batch000.csv

>  <inchikey>  (193) 
ZTVBGTNBYSEBPC-UHFFFAOYSA-N

>  <original SMILES>  (193) 
CCCCN(O)C(=O)c1ccccn1

>  <scratch_subdir>  (193) 
['/opt/xchem-fragalysis-2/maxwin/BulkDock/SCRATCH/211013/C6445-P17']

>  <tags>  (193) 
['Fragmenstein placed']

>  <distance_score>  (193) 
0.910864

>  <original ID>  (193) 
ZTVBGTNBYSEBPC-UHFFFAOYSA-N

>  <ref_mols>  (193) 
d0174a,d0615a

>  <SLURM_JOB_ID>  (193) 
211013

>  <ref_pdb>  (193) 
d0174a

$$$$
51756
     RDKit          3D

 14 14  0  0  0  0  0  0  0  0999 V2000
  -13.9579  -71.5767  -23.4648 C   0  0  0  0  0  0  0  0  0  0  0  0
  -14.5890  -70.2308  -23.1408 C   0  0  0  0  0  0  0  0  0  0  0  0
  -15.0432  -70.1315  -21.6834 C   0  0  0  0  0  0  0  0  0  0  0  0
  -14.0404  -69.4417  -20.7665 C   0  0  0  0  0  0  0  0  0  0  0  0
  -12.9139  -70.2472  -20.3036 N   0  0  0  0  0  0  0  0  0  0  0  0
  -13.2179  -70.9748  -19.1429 O   0  0  0  0  0  0  0  0  0  0  0  0
  -11.6865  -70.2850  -20.9411 C   0  0  0  0  0  0  0  0  0  0  0  0
  -11.5298  -69.7318  -22.0341 O   0  0  0  0  0  0  0  0  0  0  0  0
  -10.5221  -71.0454  -20.3603 C   0  0  0  0  0  0  0  0  0  0  0  0
  -10.6211  -72.1198  -19.4873 C   0  0  0  0  0  0  0  0  0  0  0  0
   -9.4560  -72.6211  -18.9014 C   0  0  0  0  0  0  0  0  0  0  0  0
   -8.2254  -72.0569  -19.2160 C   0  0  0  0  0  0  0  0  0  0  0  0
   -8.2032  -71.0128  -20.1188 C   0  0  0  0  0  0  0  0  0  0  0  0
   -9.3134  -70.5000  -20.6847 N   0  0  0  0  0  0  0  0  0  0  0  0
  1  2  1  0
  2  3  1  0
  3  4  1  0
  4  5  1  0
  5  6  1  0
  5  7  1  0
  7  8  2  0
  7  9  1  0
  9 10  2  0
 10 11  1  0
 11 12  2  0
 12 13  1  0
 13 14  2  0
 14  9  1  0
M  END
>  <SLURM_JOB_NAME>  (194) 
BulkDock.place:Flavi_NS5_RdRp:RdRp_knitwork_thumb_site_2_impure_split4000_batch000

>  <fragmenstein_error>  (194) 
['']

>  <HIPPO Compound ID>  (194) 
6445

>  <alias>  (194) 
None

>  <energy_score>  (194) 
-22.157799

>  <exports>  (194) 
['/opt/xchem-fragalysis-2/maxwin/BulkDock/OUTPUTS/RdRp_knitwork_thumb_site_2_impure_split4000_batch000_211013.sdf']

>  <fragmenstein_outcome>  (194) 
['acceptable']

>  <fragmenstein_mode>  (194) 
['expansion']

>  <HIPPO Pose ID>  (194) 
51756

>  <name>  (194) 
ZTVBGTNBYSEBPC-UHFFFAOYSA-N

>  <fragmenstein_runtime>  (194) 
[1.8890740871429443]

>  <csv_name>  (194) 
RdRp_knitwork_thumb_site_2_impure_split4000_batch000.csv

>  <inchikey>  (194) 
ZTVBGTNBYSEBPC-UHFFFAOYSA-N

>  <original SMILES>  (194) 
CCCCN(O)C(=O)c1ccccn1

>  <scratch_subdir>  (194) 
['/opt/xchem-fragalysis-2/maxwin/BulkDock/SCRATCH/211013/C6445-P50']

>  <tags>  (194) 
['Fragmenstein placed']

>  <distance_score>  (194) 
0.759142

>  <original ID>  (194) 
ZTVBGTNBYSEBPC-UHFFFAOYSA-N

>  <ref_mols>  (194) 
d0174a,d0615a

>  <SLURM_JOB_ID>  (194) 
211013

>  <ref_pdb>  (194) 
d0615a

$$$$
51767
     RDKit          3D

 14 14  0  0  0  0  0  0  0  0999 V2000
  -15.5618  -69.4324  -21.9394 C   0  0  0  0  0  0  0  0  0  0  0  0
  -14.7727  -70.3261  -21.1604 O   0  0  0  0  0  0  0  0  0  0  0  0
  -13.4904  -69.8843  -21.1039 C   0  0  0  0  0  0  0  0  0  0  0  0
  -13.2051  -68.6930  -21.0914 O   0  0  0  0  0  0  0  0  0  0  0  0
  -12.5598  -70.9103  -21.0667 N   0  0  0  0  0  0  0  0  0  0  0  0
  -12.9205  -72.3155  -21.1929 C   0  0  0  0  0  0  0  0  0  0  0  0
  -11.1504  -70.5068  -21.1207 C   0  0  2  0  0  0  0  0  0  0  0  0
  -10.7098  -70.6031  -22.5907 C   0  0  0  0  0  0  0  0  0  0  0  0
  -10.2006  -71.1220  -20.1126 C   0  0  0  0  0  0  0  0  0  0  0  0
  -10.6301  -71.4358  -18.8193 C   0  0  0  0  0  0  0  0  0  0  0  0
   -9.6965  -71.8506  -17.8823 C   0  0  0  0  0  0  0  0  0  0  0  0
   -8.3739  -71.9466  -18.1252 N   0  0  0  0  0  0  0  0  0  0  0  0
   -7.9667  -71.6257  -19.3692 C   0  0  0  0  0  0  0  0  0  0  0  0
   -8.8258  -71.2179  -20.3769 C   0  0  0  0  0  0  0  0  0  0  0  0
  1  2  1  0
  2  3  1  0
  3  4  2  0
  3  5  1  0
  5  6  1  0
  5  7  1  0
  7  8  1  6
  7  9  1  0
  9 10  2  0
 10 11  1  0
 11 12  2  0
 12 13  1  0
 13 14  2  0
 14  9  1  0
M  END
>  <SLURM_JOB_NAME>  (195) 
BulkDock.place:Flavi_NS5_RdRp:RdRp_knitwork_thumb_site_2_impure_split4000_batch000

>  <fragmenstein_error>  (195) 
['']

>  <HIPPO Compound ID>  (195) 
6448

>  <alias>  (195) 
None

>  <energy_score>  (195) 
-22.635918

>  <exports>  (195) 
['/opt/xchem-fragalysis-2/maxwin/BulkDock/OUTPUTS/RdRp_knitwork_thumb_site_2_impure_split4000_batch000_211013.sdf']

>  <fragmenstein_outcome>  (195) 
['acceptable']

>  <fragmenstein_mode>  (195) 
['expansion']

>  <HIPPO Pose ID>  (195) 
51767

>  <name>  (195) 
JYEQBHZIEWALPO-MRVPVSSYSA-N

>  <fragmenstein_runtime>  (195) 
[2.0221986770629883]

>  <csv_name>  (195) 
RdRp_knitwork_thumb_site_2_impure_split4000_batch000.csv

>  <inchikey>  (195) 
JYEQBHZIEWALPO-MRVPVSSYSA-N

>  <original SMILES>  (195) 
COC(=O)N(C)[C@H](C)c1ccncc1

>  <scratch_subdir>  (195) 
['/opt/xchem-fragalysis-2/maxwin/BulkDock/SCRATCH/211013/C6448-P17']

>  <tags>  (195) 
['Fragmenstein placed']

>  <distance_score>  (195) 
0.993426

>  <original ID>  (195) 
JYEQBHZIEWALPO-MRVPVSSYSA-N

>  <ref_mols>  (195) 
d0174a,d0615a

>  <SLURM_JOB_ID>  (195) 
211013

>  <ref_pdb>  (195) 
d0174a

$$$$
51771
     RDKit          3D

 14 14  0  0  0  0  0  0  0  0999 V2000
  -15.6971  -69.2823  -21.6177 C   0  0  0  0  0  0  0  0  0  0  0  0
  -14.8423  -70.2830  -21.0719 O   0  0  0  0  0  0  0  0  0  0  0  0
  -13.5480  -69.8696  -21.0770 C   0  0  0  0  0  0  0  0  0  0  0  0
  -13.2318  -68.6888  -21.0002 O   0  0  0  0  0  0  0  0  0  0  0  0
  -12.6455  -70.9181  -21.1619 N   0  0  0  0  0  0  0  0  0  0  0  0
  -13.0612  -72.3016  -21.3434 C   0  0  0  0  0  0  0  0  0  0  0  0
  -11.2257  -70.5673  -21.2890 C   0  0  2  0  0  0  0  0  0  0  0  0
  -10.8071  -70.8146  -22.7462 C   0  0  0  0  0  0  0  0  0  0  0  0
  -10.2728  -71.1043  -20.2373 C   0  0  0  0  0  0  0  0  0  0  0  0
  -10.7139  -71.5079  -18.9742 C   0  0  0  0  0  0  0  0  0  0  0  0
   -9.7762  -71.8645  -18.0154 C   0  0  0  0  0  0  0  0  0  0  0  0
   -8.4417  -71.8248  -18.2082 N   0  0  0  0  0  0  0  0  0  0  0  0
   -8.0247  -71.4166  -19.4228 C   0  0  0  0  0  0  0  0  0  0  0  0
   -8.8846  -71.0511  -20.4465 C   0  0  0  0  0  0  0  0  0  0  0  0
  1  2  1  0
  2  3  1  0
  3  4  2  0
  3  5  1  0
  5  6  1  0
  5  7  1  0
  7  8  1  6
  7  9  1  0
  9 10  2  0
 10 11  1  0
 11 12  2  0
 12 13  1  0
 13 14  2  0
 14  9  1  0
M  END
>  <SLURM_JOB_NAME>  (196) 
BulkDock.place:Flavi_NS5_RdRp:RdRp_knitwork_thumb_site_2_impure_split4000_batch000

>  <fragmenstein_error>  (196) 
['']

>  <HIPPO Compound ID>  (196) 
6448

>  <alias>  (196) 
None

>  <energy_score>  (196) 
-23.854168

>  <exports>  (196) 
['/opt/xchem-fragalysis-2/maxwin/BulkDock/OUTPUTS/RdRp_knitwork_thumb_site_2_impure_split4000_batch000_211013.sdf']

>  <fragmenstein_outcome>  (196) 
['acceptable']

>  <fragmenstein_mode>  (196) 
['expansion']

>  <HIPPO Pose ID>  (196) 
51771

>  <name>  (196) 
JYEQBHZIEWALPO-MRVPVSSYSA-N

>  <fragmenstein_runtime>  (196) 
[2.100607395172119]

>  <csv_name>  (196) 
RdRp_knitwork_thumb_site_2_impure_split4000_batch000.csv

>  <inchikey>  (196) 
JYEQBHZIEWALPO-MRVPVSSYSA-N

>  <original SMILES>  (196) 
COC(=O)N(C)[C@H](C)c1ccncc1

>  <scratch_subdir>  (196) 
['/opt/xchem-fragalysis-2/maxwin/BulkDock/SCRATCH/211013/C6448-P50']

>  <tags>  (196) 
['Fragmenstein placed']

>  <distance_score>  (196) 
0.989841

>  <original ID>  (196) 
JYEQBHZIEWALPO-MRVPVSSYSA-N

>  <ref_mols>  (196) 
d0174a,d0615a

>  <SLURM_JOB_ID>  (196) 
211013

>  <ref_pdb>  (196) 
d0615a

$$$$
51781
     RDKit          3D

 18 18  0  0  0  0  0  0  0  0999 V2000
   -9.1280  -71.1623  -22.1925 C   0  0  0  0  0  0  0  0  0  0  0  0
   -9.3567  -71.4385  -20.7172 C   0  0  2  0  0  0  0  0  0  0  0  0
  -10.7210  -70.9318  -20.2262 C   0  0  0  0  0  0  0  0  0  0  0  0
  -11.8741  -71.2952  -21.1651 C   0  0  0  0  0  0  0  0  0  0  0  0
  -13.1734  -71.2258  -20.4862 N   0  0  0  0  0  0  0  0  0  0  0  0
  -13.8817  -69.7555  -20.1464 S   0  0  0  0  0  0  0  0  0  0  0  0
  -12.8935  -68.7143  -20.2924 O   0  0  0  0  0  0  0  0  0  0  0  0
  -14.5234  -69.9829  -18.8624 O   0  0  0  0  0  0  0  0  0  0  0  0
  -15.1792  -69.5356  -21.3751 C   0  0  0  0  0  0  0  0  0  0  0  0
  -14.7486  -69.7970  -22.7943 C   0  0  0  0  0  0  0  0  0  0  0  0
  -13.6541  -69.1556  -23.3783 C   0  0  0  0  0  0  0  0  0  0  0  0
  -13.3491  -69.4004  -24.7086 C   0  0  0  0  0  0  0  0  0  0  0  0
  -14.0852  -70.2000  -25.5033 N   0  0  0  0  0  0  0  0  0  0  0  0
  -15.1716  -70.7721  -24.9482 C   0  0  0  0  0  0  0  0  0  0  0  0
  -15.5326  -70.6143  -23.6177 C   0  0  0  0  0  0  0  0  0  0  0  0
   -8.2210  -70.8333  -19.8978 C   0  0  0  0  0  0  0  0  0  0  0  0
   -7.0242  -71.3187  -20.3104 F   0  0  0  0  0  0  0  0  0  0  0  0
   -8.3558  -71.1992  -18.5974 F   0  0  0  0  0  0  0  0  0  0  0  0
  2  1  1  6
  2  3  1  0
  3  4  1  0
  4  5  1  0
  5  6  1  0
  6  7  2  0
  6  8  2  0
  6  9  1  0
  9 10  1  0
 10 11  2  0
 11 12  1  0
 12 13  2  0
 13 14  1  0
 14 15  2  0
  2 16  1  0
 16 17  1  0
 16 18  1  0
 15 10  1  0
M  END
>  <SLURM_JOB_NAME>  (197) 
BulkDock.place:Flavi_NS5_RdRp:RdRp_knitwork_thumb_site_2_impure_split4000_batch000

>  <fragmenstein_error>  (197) 
['']

>  <HIPPO Compound ID>  (197) 
6465

>  <alias>  (197) 
None

>  <energy_score>  (197) 
-29.409473

>  <exports>  (197) 
['/opt/xchem-fragalysis-2/maxwin/BulkDock/OUTPUTS/RdRp_knitwork_thumb_site_2_impure_split4000_batch000_211013.sdf']

>  <fragmenstein_outcome>  (197) 
['acceptable']

>  <fragmenstein_mode>  (197) 
['expansion']

>  <HIPPO Pose ID>  (197) 
51781

>  <name>  (197) 
HIFQUWMQVAZNTE-SECBINFHSA-N

>  <fragmenstein_runtime>  (197) 
[2.8243508338928223]

>  <csv_name>  (197) 
RdRp_knitwork_thumb_site_2_impure_split4000_batch000.csv

>  <inchikey>  (197) 
HIFQUWMQVAZNTE-SECBINFHSA-N

>  <original SMILES>  (197) 
C[C@H](CCNS(=O)(=O)Cc1ccncc1)C(F)F

>  <scratch_subdir>  (197) 
['/opt/xchem-fragalysis-2/maxwin/BulkDock/SCRATCH/211013/C6465-P17']

>  <tags>  (197) 
['Fragmenstein placed']

>  <distance_score>  (197) 
0.831871

>  <original ID>  (197) 
HIFQUWMQVAZNTE-SECBINFHSA-N

>  <ref_mols>  (197) 
d0174a,d0615a

>  <SLURM_JOB_ID>  (197) 
211013

>  <ref_pdb>  (197) 
d0174a

$$$$
51784
     RDKit          3D

 18 18  0  0  0  0  0  0  0  0999 V2000
   -9.0770  -71.0096  -22.1908 C   0  0  0  0  0  0  0  0  0  0  0  0
   -9.2511  -71.3381  -20.7171 C   0  0  2  0  0  0  0  0  0  0  0  0
  -10.5851  -70.8344  -20.1501 C   0  0  0  0  0  0  0  0  0  0  0  0
  -11.7752  -71.2109  -21.0292 C   0  0  0  0  0  0  0  0  0  0  0  0
  -13.0201  -71.1989  -20.2572 N   0  0  0  0  0  0  0  0  0  0  0  0
  -13.9025  -69.7897  -20.1000 S   0  0  0  0  0  0  0  0  0  0  0  0
  -13.0113  -68.6706  -20.2888 O   0  0  0  0  0  0  0  0  0  0  0  0
  -14.5967  -69.9733  -18.8386 O   0  0  0  0  0  0  0  0  0  0  0  0
  -15.1236  -69.8520  -21.4398 C   0  0  0  0  0  0  0  0  0  0  0  0
  -14.4375  -70.0653  -22.7610 C   0  0  0  0  0  0  0  0  0  0  0  0
  -13.8129  -69.0042  -23.4178 C   0  0  0  0  0  0  0  0  0  0  0  0
  -13.0606  -69.2578  -24.5535 C   0  0  0  0  0  0  0  0  0  0  0  0
  -12.9259  -70.4839  -25.0923 N   0  0  0  0  0  0  0  0  0  0  0  0
  -13.5819  -71.4900  -24.4818 C   0  0  0  0  0  0  0  0  0  0  0  0
  -14.3408  -71.3371  -23.3310 C   0  0  0  0  0  0  0  0  0  0  0  0
   -8.0791  -70.7878  -19.9123 C   0  0  0  0  0  0  0  0  0  0  0  0
   -6.9103  -71.2947  -20.3763 F   0  0  0  0  0  0  0  0  0  0  0  0
   -8.1902  -71.1987  -18.6223 F   0  0  0  0  0  0  0  0  0  0  0  0
  2  1  1  6
  2  3  1  0
  3  4  1  0
  4  5  1  0
  5  6  1  0
  6  7  2  0
  6  8  2  0
  6  9  1  0
  9 10  1  0
 10 11  2  0
 11 12  1  0
 12 13  2  0
 13 14  1  0
 14 15  2  0
  2 16  1  0
 16 17  1  0
 16 18  1  0
 15 10  1  0
M  END
>  <SLURM_JOB_NAME>  (198) 
BulkDock.place:Flavi_NS5_RdRp:RdRp_knitwork_thumb_site_2_impure_split4000_batch000

>  <fragmenstein_error>  (198) 
['']

>  <HIPPO Compound ID>  (198) 
6465

>  <alias>  (198) 
None

>  <energy_score>  (198) 
-32.355117

>  <exports>  (198) 
['/opt/xchem-fragalysis-2/maxwin/BulkDock/OUTPUTS/RdRp_knitwork_thumb_site_2_impure_split4000_batch000_211013.sdf']

>  <fragmenstein_outcome>  (198) 
['acceptable']

>  <fragmenstein_mode>  (198) 
['expansion']

>  <HIPPO Pose ID>  (198) 
51784

>  <name>  (198) 
HIFQUWMQVAZNTE-SECBINFHSA-N

>  <fragmenstein_runtime>  (198) 
[2.6439342498779297]

>  <csv_name>  (198) 
RdRp_knitwork_thumb_site_2_impure_split4000_batch000.csv

>  <inchikey>  (198) 
HIFQUWMQVAZNTE-SECBINFHSA-N

>  <original SMILES>  (198) 
C[C@H](CCNS(=O)(=O)Cc1ccncc1)C(F)F

>  <scratch_subdir>  (198) 
['/opt/xchem-fragalysis-2/maxwin/BulkDock/SCRATCH/211013/C6465-P50']

>  <tags>  (198) 
['Fragmenstein placed']

>  <distance_score>  (198) 
0.793635

>  <original ID>  (198) 
HIFQUWMQVAZNTE-SECBINFHSA-N

>  <ref_mols>  (198) 
d0174a,d0615a

>  <SLURM_JOB_ID>  (198) 
211013

>  <ref_pdb>  (198) 
d0615a

$$$$
51787
     RDKit          3D

 14 14  0  0  0  0  0  0  0  0999 V2000
  -14.8965  -68.6760  -22.4000 C   0  0  0  0  0  0  0  0  0  0  0  0
  -14.5291  -69.8875  -21.7464 O   0  0  0  0  0  0  0  0  0  0  0  0
  -13.5640  -69.7371  -20.7961 C   0  0  0  0  0  0  0  0  0  0  0  0
  -13.1589  -68.6748  -20.3527 O   0  0  0  0  0  0  0  0  0  0  0  0
  -13.0076  -71.0807  -20.4258 C   0  0  0  0  0  0  0  0  0  0  0  0
  -11.7267  -71.4511  -21.2084 C   0  0  2  0  0  0  0  0  0  0  0  0
  -11.6257  -70.7662  -22.5831 C   0  0  0  0  0  0  0  0  0  0  0  0
  -11.8226  -72.8688  -21.4800 O   0  0  0  0  0  0  0  0  0  0  0  0
  -10.4675  -71.3281  -20.3533 C   0  0  0  0  0  0  0  0  0  0  0  0
  -10.3678  -72.0709  -19.1633 C   0  0  0  0  0  0  0  0  0  0  0  0
   -9.2047  -72.0170  -18.4120 C   0  0  0  0  0  0  0  0  0  0  0  0
   -8.1298  -71.2840  -18.7532 N   0  0  0  0  0  0  0  0  0  0  0  0
   -8.2210  -70.5913  -19.9085 C   0  0  0  0  0  0  0  0  0  0  0  0
   -9.3491  -70.5702  -20.7205 C   0  0  0  0  0  0  0  0  0  0  0  0
  1  2  1  0
  2  3  1  0
  3  4  2  0
  3  5  1  0
  5  6  1  0
  6  7  1  6
  6  8  1  0
  6  9  1  0
  9 10  2  0
 10 11  1  0
 11 12  2  0
 12 13  1  0
 13 14  2  0
 14  9  1  0
M  END
>  <SLURM_JOB_NAME>  (199) 
BulkDock.place:Flavi_NS5_RdRp:RdRp_knitwork_thumb_site_2_impure_split4000_batch000

>  <fragmenstein_error>  (199) 
['']

>  <HIPPO Compound ID>  (199) 
6485

>  <alias>  (199) 
None

>  <energy_score>  (199) 
-30.595859

>  <exports>  (199) 
['/opt/xchem-fragalysis-2/maxwin/BulkDock/OUTPUTS/RdRp_knitwork_thumb_site_2_impure_split4000_batch000_211013.sdf']

>  <fragmenstein_outcome>  (199) 
['acceptable']

>  <fragmenstein_mode>  (199) 
['expansion']

>  <HIPPO Pose ID>  (199) 
51787

>  <name>  (199) 
LPQBVMWQTVVQKU-JTQLQIEISA-N

>  <fragmenstein_runtime>  (199) 
[2.019491672515869]

>  <csv_name>  (199) 
RdRp_knitwork_thumb_site_2_impure_split4000_batch000.csv

>  <inchikey>  (199) 
LPQBVMWQTVVQKU-JTQLQIEISA-N

>  <original SMILES>  (199) 
COC(=O)C[C@](C)(O)c1ccncc1

>  <scratch_subdir>  (199) 
['/opt/xchem-fragalysis-2/maxwin/BulkDock/SCRATCH/211013/C6485-P17']

>  <tags>  (199) 
['Fragmenstein placed']

>  <distance_score>  (199) 
0.974321

>  <original ID>  (199) 
LPQBVMWQTVVQKU-JTQLQIEISA-N

>  <ref_mols>  (199) 
d0174a,d0615a

>  <SLURM_JOB_ID>  (199) 
211013

>  <ref_pdb>  (199) 
d0174a

$$$$
51788
     RDKit          3D

 14 14  0  0  0  0  0  0  0  0999 V2000
  -14.9636  -68.6871  -22.3388 C   0  0  0  0  0  0  0  0  0  0  0  0
  -14.5867  -69.8934  -21.6835 O   0  0  0  0  0  0  0  0  0  0  0  0
  -13.5941  -69.7495  -20.7622 C   0  0  0  0  0  0  0  0  0  0  0  0
  -13.1632  -68.6883  -20.3368 O   0  0  0  0  0  0  0  0  0  0  0  0
  -13.0312  -71.0954  -20.4095 C   0  0  0  0  0  0  0  0  0  0  0  0
  -11.7354  -71.4317  -21.1817 C   0  0  2  0  0  0  0  0  0  0  0  0
  -11.6787  -70.7755  -22.5721 C   0  0  0  0  0  0  0  0  0  0  0  0
  -11.8046  -72.8527  -21.4575 O   0  0  0  0  0  0  0  0  0  0  0  0
  -10.4705  -71.2592  -20.3422 C   0  0  0  0  0  0  0  0  0  0  0  0
  -10.3549  -71.9544  -19.1255 C   0  0  0  0  0  0  0  0  0  0  0  0
   -9.1781  -71.8780  -18.3983 C   0  0  0  0  0  0  0  0  0  0  0  0
   -8.1037  -71.1702  -18.7914 N   0  0  0  0  0  0  0  0  0  0  0  0
   -8.2170  -70.5101  -19.9642 C   0  0  0  0  0  0  0  0  0  0  0  0
   -9.3592  -70.5157  -20.7561 C   0  0  0  0  0  0  0  0  0  0  0  0
  1  2  1  0
  2  3  1  0
  3  4  2  0
  3  5  1  0
  5  6  1  0
  6  7  1  6
  6  8  1  0
  6  9  1  0
  9 10  2  0
 10 11  1  0
 11 12  2  0
 12 13  1  0
 13 14  2  0
 14  9  1  0
M  END
>  <SLURM_JOB_NAME>  (200) 
BulkDock.place:Flavi_NS5_RdRp:RdRp_knitwork_thumb_site_2_impure_split4000_batch000

>  <fragmenstein_error>  (200) 
['']

>  <HIPPO Compound ID>  (200) 
6485

>  <alias>  (200) 
None

>  <energy_score>  (200) 
-32.393796

>  <exports>  (200) 
['/opt/xchem-fragalysis-2/maxwin/BulkDock/OUTPUTS/RdRp_knitwork_thumb_site_2_impure_split4000_batch000_211013.sdf']

>  <fragmenstein_outcome>  (200) 
['acceptable']

>  <fragmenstein_mode>  (200) 
['expansion']

>  <HIPPO Pose ID>  (200) 
51788

>  <name>  (200) 
LPQBVMWQTVVQKU-JTQLQIEISA-N

>  <fragmenstein_runtime>  (200) 
[2.4357035160064697]

>  <csv_name>  (200) 
RdRp_knitwork_thumb_site_2_impure_split4000_batch000.csv

>  <inchikey>  (200) 
LPQBVMWQTVVQKU-JTQLQIEISA-N

>  <original SMILES>  (200) 
COC(=O)C[C@](C)(O)c1ccncc1

>  <scratch_subdir>  (200) 
['/opt/xchem-fragalysis-2/maxwin/BulkDock/SCRATCH/211013/C6485-P50']

>  <tags>  (200) 
['Fragmenstein placed']

>  <distance_score>  (200) 
0.991051

>  <original ID>  (200) 
LPQBVMWQTVVQKU-JTQLQIEISA-N

>  <ref_mols>  (200) 
d0174a,d0615a

>  <SLURM_JOB_ID>  (200) 
211013

>  <ref_pdb>  (200) 
d0615a

$$$$
51790
     RDKit          3D

 22 22  0  0  0  0  0  0  0  0999 V2000
  -10.0501  -70.6036  -24.6381 C   0  0  0  0  0  0  0  0  0  0  0  0
  -10.1875  -71.2971  -23.2926 C   0  0  0  0  0  0  0  0  0  0  0  0
  -11.1956  -70.5863  -22.3857 C   0  0  0  0  0  0  0  0  0  0  0  0
  -11.5176  -71.3715  -21.1057 C   0  0  2  0  0  0  0  0  0  0  0  0
  -12.9609  -71.3319  -20.7247 N   0  0  0  0  0  0  0  0  0  0  0  0
  -13.7412  -69.9517  -20.2775 S   0  0  0  0  0  0  0  0  0  0  0  0
  -12.9409  -68.7972  -20.5836 O   0  0  0  0  0  0  0  0  0  0  0  0
  -14.1890  -70.2113  -18.9193 O   0  0  0  0  0  0  0  0  0  0  0  0
  -15.2151  -69.9379  -21.2881 C   0  0  0  0  0  0  0  0  0  0  0  0
  -15.1440  -70.0782  -22.8174 C   0  0  0  0  0  0  0  0  0  0  0  0
  -16.5834  -69.8304  -23.3469 C   0  0  0  0  0  0  0  0  0  0  0  0
  -14.2576  -69.0027  -23.4357 C   0  0  0  0  0  0  0  0  0  0  0  0
  -14.8152  -71.4948  -23.2989 C   0  0  0  0  0  0  0  0  0  0  0  0
  -15.6733  -72.3907  -22.7493 F   0  0  0  0  0  0  0  0  0  0  0  0
  -14.9646  -71.5820  -24.6398 F   0  0  0  0  0  0  0  0  0  0  0  0
  -13.5838  -71.9389  -23.0342 F   0  0  0  0  0  0  0  0  0  0  0  0
  -10.4867  -71.1915  -19.9966 C   0  0  0  0  0  0  0  0  0  0  0  0
  -10.7027  -71.7162  -18.7247 C   0  0  0  0  0  0  0  0  0  0  0  0
   -9.6296  -71.8058  -17.8383 C   0  0  0  0  0  0  0  0  0  0  0  0
   -8.3698  -71.3789  -18.2383 C   0  0  0  0  0  0  0  0  0  0  0  0
   -8.2417  -70.8341  -19.4979 C   0  0  0  0  0  0  0  0  0  0  0  0
   -9.2641  -70.7315  -20.3666 N   0  0  0  0  0  0  0  0  0  0  0  0
  1  2  1  0
  2  3  1  0
  4  3  1  6
  4  5  1  0
  5  6  1  0
  6  7  2  0
  6  8  2  0
  6  9  1  0
  9 10  1  0
 10 11  1  0
 10 12  1  0
 10 13  1  0
 13 14  1  0
 13 15  1  0
 13 16  1  0
  4 17  1  0
 17 18  2  0
 18 19  1  0
 19 20  2  0
 20 21  1  0
 21 22  2  0
 22 17  1  0
M  END
>  <SLURM_JOB_NAME>  (201) 
BulkDock.place:Flavi_NS5_RdRp:RdRp_knitwork_thumb_site_2_impure_split4000_batch000

>  <fragmenstein_error>  (201) 
['']

>  <HIPPO Compound ID>  (201) 
6489

>  <alias>  (201) 
None

>  <energy_score>  (201) 
-34.001152

>  <exports>  (201) 
['/opt/xchem-fragalysis-2/maxwin/BulkDock/OUTPUTS/RdRp_knitwork_thumb_site_2_impure_split4000_batch000_211013.sdf']

>  <fragmenstein_outcome>  (201) 
['acceptable']

>  <fragmenstein_mode>  (201) 
['expansion']

>  <HIPPO Pose ID>  (201) 
51790

>  <name>  (201) 
FPGLJNIRXQQASH-LBPRGKRZSA-N

>  <fragmenstein_runtime>  (201) 
[7.104072332382202]

>  <csv_name>  (201) 
RdRp_knitwork_thumb_site_2_impure_split4000_batch000.csv

>  <inchikey>  (201) 
FPGLJNIRXQQASH-LBPRGKRZSA-N

>  <original SMILES>  (201) 
CCC[C@H](NS(=O)(=O)CC(C)(C)C(F)(F)F)c1ccccn1

>  <scratch_subdir>  (201) 
['/opt/xchem-fragalysis-2/maxwin/BulkDock/SCRATCH/211013/C6489-P17']

>  <tags>  (201) 
['Fragmenstein placed']

>  <distance_score>  (201) 
0.791691

>  <original ID>  (201) 
FPGLJNIRXQQASH-LBPRGKRZSA-N

>  <ref_mols>  (201) 
d0174a,d0615a

>  <SLURM_JOB_ID>  (201) 
211013

>  <ref_pdb>  (201) 
d0174a

$$$$
51793
     RDKit          3D

 22 22  0  0  0  0  0  0  0  0999 V2000
  -10.0793  -70.6455  -24.7069 C   0  0  0  0  0  0  0  0  0  0  0  0
   -9.9749  -70.8403  -23.2009 C   0  0  0  0  0  0  0  0  0  0  0  0
  -11.3050  -70.5519  -22.5025 C   0  0  0  0  0  0  0  0  0  0  0  0
  -11.5515  -71.3044  -21.1873 C   0  0  2  0  0  0  0  0  0  0  0  0
  -12.9929  -71.2505  -20.8007 N   0  0  0  0  0  0  0  0  0  0  0  0
  -13.7113  -69.8839  -20.2186 S   0  0  0  0  0  0  0  0  0  0  0  0
  -12.8811  -68.7413  -20.4882 O   0  0  0  0  0  0  0  0  0  0  0  0
  -14.1053  -70.2268  -18.8631 O   0  0  0  0  0  0  0  0  0  0  0  0
  -15.2210  -69.7050  -21.1586 C   0  0  0  0  0  0  0  0  0  0  0  0
  -15.3298  -70.2243  -22.6081 C   0  0  0  0  0  0  0  0  0  0  0  0
  -16.8125  -70.0305  -23.0174 C   0  0  0  0  0  0  0  0  0  0  0  0
  -14.5013  -69.3830  -23.5699 C   0  0  0  0  0  0  0  0  0  0  0  0
  -15.0454  -71.7250  -22.7271 C   0  0  0  0  0  0  0  0  0  0  0  0
  -15.8509  -72.3201  -23.6342 F   0  0  0  0  0  0  0  0  0  0  0  0
  -13.7913  -72.0325  -23.0897 F   0  0  0  0  0  0  0  0  0  0  0  0
  -15.2841  -72.3400  -21.5458 F   0  0  0  0  0  0  0  0  0  0  0  0
  -10.5292  -71.1106  -20.0724 C   0  0  0  0  0  0  0  0  0  0  0  0
  -10.7169  -71.7232  -18.8334 C   0  0  0  0  0  0  0  0  0  0  0  0
   -9.6421  -71.8167  -17.9494 C   0  0  0  0  0  0  0  0  0  0  0  0
   -8.4049  -71.3077  -18.3195 C   0  0  0  0  0  0  0  0  0  0  0  0
   -8.3068  -70.6773  -19.5418 C   0  0  0  0  0  0  0  0  0  0  0  0
   -9.3345  -70.5661  -20.4048 N   0  0  0  0  0  0  0  0  0  0  0  0
  1  2  1  0
  2  3  1  0
  4  3  1  6
  4  5  1  0
  5  6  1  0
  6  7  2  0
  6  8  2  0
  6  9  1  0
  9 10  1  0
 10 11  1  0
 10 12  1  0
 10 13  1  0
 13 14  1  0
 13 15  1  0
 13 16  1  0
  4 17  1  0
 17 18  2  0
 18 19  1  0
 19 20  2  0
 20 21  1  0
 21 22  2  0
 22 17  1  0
M  END
>  <SLURM_JOB_NAME>  (202) 
BulkDock.place:Flavi_NS5_RdRp:RdRp_knitwork_thumb_site_2_impure_split4000_batch000

>  <fragmenstein_error>  (202) 
['']

>  <HIPPO Compound ID>  (202) 
6489

>  <alias>  (202) 
None

>  <energy_score>  (202) 
-29.688772

>  <exports>  (202) 
['/opt/xchem-fragalysis-2/maxwin/BulkDock/OUTPUTS/RdRp_knitwork_thumb_site_2_impure_split4000_batch000_211013.sdf']

>  <fragmenstein_outcome>  (202) 
['acceptable']

>  <fragmenstein_mode>  (202) 
['expansion']

>  <HIPPO Pose ID>  (202) 
51793

>  <name>  (202) 
FPGLJNIRXQQASH-LBPRGKRZSA-N

>  <fragmenstein_runtime>  (202) 
[7.027507066726685]

>  <csv_name>  (202) 
RdRp_knitwork_thumb_site_2_impure_split4000_batch000.csv

>  <inchikey>  (202) 
FPGLJNIRXQQASH-LBPRGKRZSA-N

>  <original SMILES>  (202) 
CCC[C@H](NS(=O)(=O)CC(C)(C)C(F)(F)F)c1ccccn1

>  <scratch_subdir>  (202) 
['/opt/xchem-fragalysis-2/maxwin/BulkDock/SCRATCH/211013/C6489-P50']

>  <tags>  (202) 
['Fragmenstein placed']

>  <distance_score>  (202) 
0.740754

>  <original ID>  (202) 
FPGLJNIRXQQASH-LBPRGKRZSA-N

>  <ref_mols>  (202) 
d0174a,d0615a

>  <SLURM_JOB_ID>  (202) 
211013

>  <ref_pdb>  (202) 
d0615a

$$$$
51796
     RDKit          3D

 15 15  0  0  0  0  0  0  0  0999 V2000
  -13.8513  -70.2783  -24.7799 C   0  0  0  0  0  0  0  0  0  0  0  0
  -14.2673  -69.4996  -23.7726 C   0  0  0  0  0  0  0  0  0  0  0  0
  -15.1476  -69.9748  -22.6597 C   0  0  0  0  0  0  0  0  0  0  0  0
  -15.0244  -69.1738  -21.3590 C   0  0  0  0  0  0  0  0  0  0  0  0
  -13.6246  -69.1009  -20.7598 C   0  0  0  0  0  0  0  0  0  0  0  0
  -13.0722  -70.4614  -20.4100 C   0  0  0  0  0  0  0  0  0  0  0  0
  -13.6376  -71.1360  -19.5395 O   0  0  0  0  0  0  0  0  0  0  0  0
  -11.8130  -70.9504  -21.1581 C   0  0  1  0  0  0  0  0  0  0  0  0
  -11.4905  -70.2029  -22.3224 O   0  0  0  0  0  0  0  0  0  0  0  0
  -10.5905  -71.0484  -20.2657 C   0  0  0  0  0  0  0  0  0  0  0  0
  -10.6119  -71.8515  -19.1176 C   0  0  0  0  0  0  0  0  0  0  0  0
   -9.4520  -71.9976  -18.3710 C   0  0  0  0  0  0  0  0  0  0  0  0
   -8.2787  -71.4129  -18.6837 N   0  0  0  0  0  0  0  0  0  0  0  0
   -8.2674  -70.6524  -19.7986 C   0  0  0  0  0  0  0  0  0  0  0  0
   -9.3767  -70.4372  -20.6020 C   0  0  0  0  0  0  0  0  0  0  0  0
  1  2  2  0
  2  3  1  0
  3  4  1  0
  4  5  1  0
  5  6  1  0
  6  7  2  0
  6  8  1  0
  8  9  1  6
  8 10  1  0
 10 11  2  0
 11 12  1  0
 12 13  2  0
 13 14  1  0
 14 15  2  0
 15 10  1  0
M  END
>  <SLURM_JOB_NAME>  (203) 
BulkDock.place:Flavi_NS5_RdRp:RdRp_knitwork_thumb_site_2_impure_split4000_batch000

>  <fragmenstein_error>  (203) 
['']

>  <HIPPO Compound ID>  (203) 
6523

>  <alias>  (203) 
None

>  <energy_score>  (203) 
-358.337334

>  <exports>  (203) 
['/opt/xchem-fragalysis-2/maxwin/BulkDock/OUTPUTS/RdRp_knitwork_thumb_site_2_impure_split4000_batch000_211013.sdf']

>  <fragmenstein_outcome>  (203) 
['acceptable']

>  <fragmenstein_mode>  (203) 
['expansion']

>  <HIPPO Pose ID>  (203) 
51796

>  <name>  (203) 
RBWRVERALIRLCR-LBPRGKRZSA-N

>  <fragmenstein_runtime>  (203) 
[1.68937349319458]

>  <csv_name>  (203) 
RdRp_knitwork_thumb_site_2_impure_split4000_batch000.csv

>  <inchikey>  (203) 
RBWRVERALIRLCR-LBPRGKRZSA-N

>  <original SMILES>  (203) 
C=CCCCC(=O)[C@@H](O)c1ccncc1

>  <scratch_subdir>  (203) 
['/opt/xchem-fragalysis-2/maxwin/BulkDock/SCRATCH/211013/C6523-P17']

>  <tags>  (203) 
['Fragmenstein placed']

>  <distance_score>  (203) 
0.855

>  <original ID>  (203) 
RBWRVERALIRLCR-LBPRGKRZSA-N

>  <ref_mols>  (203) 
d0174a,d0615a

>  <SLURM_JOB_ID>  (203) 
211013

>  <ref_pdb>  (203) 
d0174a

$$$$
51799
     RDKit          3D

 15 15  0  0  0  0  0  0  0  0999 V2000
  -13.9618  -70.1463  -24.6850 C   0  0  0  0  0  0  0  0  0  0  0  0
  -14.3488  -69.3738  -23.6609 C   0  0  0  0  0  0  0  0  0  0  0  0
  -15.3072  -69.8212  -22.6021 C   0  0  0  0  0  0  0  0  0  0  0  0
  -15.0243  -69.2909  -21.1902 C   0  0  0  0  0  0  0  0  0  0  0  0
  -13.5890  -69.4383  -20.6892 C   0  0  0  0  0  0  0  0  0  0  0  0
  -13.0342  -70.8280  -20.9116 C   0  0  0  0  0  0  0  0  0  0  0  0
  -13.6828  -71.8293  -20.5906 O   0  0  0  0  0  0  0  0  0  0  0  0
  -11.6197  -70.9533  -21.4950 C   0  0  1  0  0  0  0  0  0  0  0  0
  -11.3387  -69.9757  -22.4885 O   0  0  0  0  0  0  0  0  0  0  0  0
  -10.5241  -70.9801  -20.4460 C   0  0  0  0  0  0  0  0  0  0  0  0
  -10.6782  -71.7002  -19.2538 C   0  0  0  0  0  0  0  0  0  0  0  0
   -9.6015  -71.8095  -18.3850 C   0  0  0  0  0  0  0  0  0  0  0  0
   -8.3886  -71.2682  -18.6162 N   0  0  0  0  0  0  0  0  0  0  0  0
   -8.2514  -70.5839  -19.7717 C   0  0  0  0  0  0  0  0  0  0  0  0
   -9.2690  -70.4130  -20.6978 C   0  0  0  0  0  0  0  0  0  0  0  0
  1  2  2  0
  2  3  1  0
  3  4  1  0
  4  5  1  0
  5  6  1  0
  6  7  2  0
  6  8  1  0
  8  9  1  6
  8 10  1  0
 10 11  2  0
 11 12  1  0
 12 13  2  0
 13 14  1  0
 14 15  2  0
 15 10  1  0
M  END
>  <SLURM_JOB_NAME>  (204) 
BulkDock.place:Flavi_NS5_RdRp:RdRp_knitwork_thumb_site_2_impure_split4000_batch000

>  <fragmenstein_error>  (204) 
['']

>  <HIPPO Compound ID>  (204) 
6523

>  <alias>  (204) 
None

>  <energy_score>  (204) 
-360.172599

>  <exports>  (204) 
['/opt/xchem-fragalysis-2/maxwin/BulkDock/OUTPUTS/RdRp_knitwork_thumb_site_2_impure_split4000_batch000_211013.sdf']

>  <fragmenstein_outcome>  (204) 
['acceptable']

>  <fragmenstein_mode>  (204) 
['expansion']

>  <HIPPO Pose ID>  (204) 
51799

>  <name>  (204) 
RBWRVERALIRLCR-LBPRGKRZSA-N

>  <fragmenstein_runtime>  (204) 
[1.5634491443634033]

>  <csv_name>  (204) 
RdRp_knitwork_thumb_site_2_impure_split4000_batch000.csv

>  <inchikey>  (204) 
RBWRVERALIRLCR-LBPRGKRZSA-N

>  <original SMILES>  (204) 
C=CCCCC(=O)[C@@H](O)c1ccncc1

>  <scratch_subdir>  (204) 
['/opt/xchem-fragalysis-2/maxwin/BulkDock/SCRATCH/211013/C6523-P50']

>  <tags>  (204) 
['Fragmenstein placed']

>  <distance_score>  (204) 
0.753883

>  <original ID>  (204) 
RBWRVERALIRLCR-LBPRGKRZSA-N

>  <ref_mols>  (204) 
d0174a,d0615a

>  <SLURM_JOB_ID>  (204) 
211013

>  <ref_pdb>  (204) 
d0615a

$$$$
51809
     RDKit          3D

 16 16  0  0  0  0  0  0  0  0999 V2000
  -10.2691  -71.0248  -23.6125 C   0  0  0  0  0  0  0  0  0  0  0  0
  -11.0752  -70.4272  -22.4714 C   0  0  0  0  0  0  0  0  0  0  0  0
  -11.2917  -71.4209  -21.3174 C   0  0  2  0  0  0  0  0  0  0  0  0
  -12.7051  -71.4142  -20.9103 N   0  0  0  0  0  0  0  0  0  0  0  0
  -13.4081  -70.1045  -20.1907 S   0  0  0  0  0  0  0  0  0  0  0  0
  -13.7855  -70.5062  -18.8521 O   0  0  0  0  0  0  0  0  0  0  0  0
  -12.6983  -68.8853  -20.4585 O   0  0  0  0  0  0  0  0  0  0  0  0
  -14.8259  -70.0985  -21.0973 N   0  0  0  0  0  0  0  0  0  0  0  0
  -14.6898  -69.7568  -22.5347 C   0  0  0  0  0  0  0  0  0  0  0  0
  -15.8725  -69.3043  -20.4600 C   0  0  0  0  0  0  0  0  0  0  0  0
  -10.2745  -71.3589  -20.1856 C   0  0  0  0  0  0  0  0  0  0  0  0
  -10.5709  -71.8870  -18.9225 C   0  0  0  0  0  0  0  0  0  0  0  0
   -9.5897  -71.8960  -17.9415 C   0  0  0  0  0  0  0  0  0  0  0  0
   -8.3367  -71.4357  -18.1225 N   0  0  0  0  0  0  0  0  0  0  0  0
   -8.0523  -70.9440  -19.3448 C   0  0  0  0  0  0  0  0  0  0  0  0
   -8.9691  -70.8824  -20.3841 C   0  0  0  0  0  0  0  0  0  0  0  0
  1  2  1  0
  3  2  1  6
  3  4  1  0
  4  5  1  0
  5  6  2  0
  5  7  2  0
  5  8  1  0
  8  9  1  0
  8 10  1  0
  3 11  1  0
 11 12  2  0
 12 13  1  0
 13 14  2  0
 14 15  1  0
 15 16  2  0
 16 11  1  0
M  END
>  <SLURM_JOB_NAME>  (205) 
BulkDock.place:Flavi_NS5_RdRp:RdRp_knitwork_thumb_site_2_impure_split4000_batch000

>  <fragmenstein_error>  (205) 
['']

>  <HIPPO Compound ID>  (205) 
6527

>  <alias>  (205) 
None

>  <energy_score>  (205) 
-27.994881

>  <exports>  (205) 
['/opt/xchem-fragalysis-2/maxwin/BulkDock/OUTPUTS/RdRp_knitwork_thumb_site_2_impure_split4000_batch000_211013.sdf']

>  <fragmenstein_outcome>  (205) 
['acceptable']

>  <fragmenstein_mode>  (205) 
['expansion']

>  <HIPPO Pose ID>  (205) 
51809

>  <name>  (205) 
XVUBRPZAPHYKMV-JTQLQIEISA-N

>  <fragmenstein_runtime>  (205) 
[3.3061165809631348]

>  <csv_name>  (205) 
RdRp_knitwork_thumb_site_2_impure_split4000_batch000.csv

>  <inchikey>  (205) 
XVUBRPZAPHYKMV-JTQLQIEISA-N

>  <original SMILES>  (205) 
CC[C@H](NS(=O)(=O)N(C)C)c1ccncc1

>  <scratch_subdir>  (205) 
['/opt/xchem-fragalysis-2/maxwin/BulkDock/SCRATCH/211013/C6527-P17']

>  <tags>  (205) 
['Fragmenstein placed']

>  <distance_score>  (205) 
0.765163

>  <original ID>  (205) 
XVUBRPZAPHYKMV-JTQLQIEISA-N

>  <ref_mols>  (205) 
d0174a,d0615a

>  <SLURM_JOB_ID>  (205) 
211013

>  <ref_pdb>  (205) 
d0174a

$$$$
51810
     RDKit          3D

 16 16  0  0  0  0  0  0  0  0999 V2000
  -10.3920  -70.9805  -23.6044 C   0  0  0  0  0  0  0  0  0  0  0  0
  -11.4866  -70.5503  -22.6383 C   0  0  0  0  0  0  0  0  0  0  0  0
  -11.6057  -71.4347  -21.3876 C   0  0  2  0  0  0  0  0  0  0  0  0
  -12.9900  -71.3597  -20.8828 N   0  0  0  0  0  0  0  0  0  0  0  0
  -13.5659  -70.0298  -20.0842 S   0  0  0  0  0  0  0  0  0  0  0  0
  -13.9067  -70.4750  -18.7490 O   0  0  0  0  0  0  0  0  0  0  0  0
  -12.7611  -68.8653  -20.3312 O   0  0  0  0  0  0  0  0  0  0  0  0
  -15.0229  -69.8488  -20.9169 N   0  0  0  0  0  0  0  0  0  0  0  0
  -14.9119  -69.4981  -22.3542 C   0  0  0  0  0  0  0  0  0  0  0  0
  -15.9656  -68.9564  -20.2168 C   0  0  0  0  0  0  0  0  0  0  0  0
  -10.5246  -71.3313  -20.3230 C   0  0  0  0  0  0  0  0  0  0  0  0
  -10.6117  -72.1297  -19.1732 C   0  0  0  0  0  0  0  0  0  0  0  0
   -9.5637  -72.1336  -18.2631 C   0  0  0  0  0  0  0  0  0  0  0  0
   -8.4318  -71.4202  -18.4170 N   0  0  0  0  0  0  0  0  0  0  0  0
   -8.3595  -70.6514  -19.5226 C   0  0  0  0  0  0  0  0  0  0  0  0
   -9.3710  -70.5518  -20.4679 C   0  0  0  0  0  0  0  0  0  0  0  0
  1  2  1  0
  3  2  1  6
  3  4  1  0
  4  5  1  0
  5  6  2  0
  5  7  2  0
  5  8  1  0
  8  9  1  0
  8 10  1  0
  3 11  1  0
 11 12  2  0
 12 13  1  0
 13 14  2  0
 14 15  1  0
 15 16  2  0
 16 11  1  0
M  END
>  <SLURM_JOB_NAME>  (206) 
BulkDock.place:Flavi_NS5_RdRp:RdRp_knitwork_thumb_site_2_impure_split4000_batch000

>  <fragmenstein_error>  (206) 
['']

>  <HIPPO Compound ID>  (206) 
6527

>  <alias>  (206) 
None

>  <energy_score>  (206) 
-29.846533

>  <exports>  (206) 
['/opt/xchem-fragalysis-2/maxwin/BulkDock/OUTPUTS/RdRp_knitwork_thumb_site_2_impure_split4000_batch000_211013.sdf']

>  <fragmenstein_outcome>  (206) 
['acceptable']

>  <fragmenstein_mode>  (206) 
['expansion']

>  <HIPPO Pose ID>  (206) 
51810

>  <name>  (206) 
XVUBRPZAPHYKMV-JTQLQIEISA-N

>  <fragmenstein_runtime>  (206) 
[2.9254088401794434]

>  <csv_name>  (206) 
RdRp_knitwork_thumb_site_2_impure_split4000_batch000.csv

>  <inchikey>  (206) 
XVUBRPZAPHYKMV-JTQLQIEISA-N

>  <original SMILES>  (206) 
CC[C@H](NS(=O)(=O)N(C)C)c1ccncc1

>  <scratch_subdir>  (206) 
['/opt/xchem-fragalysis-2/maxwin/BulkDock/SCRATCH/211013/C6527-P50']

>  <tags>  (206) 
['Fragmenstein placed']

>  <distance_score>  (206) 
0.751648

>  <original ID>  (206) 
XVUBRPZAPHYKMV-JTQLQIEISA-N

>  <ref_mols>  (206) 
d0174a,d0615a

>  <SLURM_JOB_ID>  (206) 
211013

>  <ref_pdb>  (206) 
d0615a

$$$$
51821
     RDKit          3D

 14 14  0  0  0  0  0  0  0  0999 V2000
  -11.8599  -70.4311  -22.6202 C   0  0  0  0  0  0  0  0  0  0  0  0
  -11.8187  -71.3103  -21.3728 C   0  0  2  0  0  0  0  0  0  0  0  0
  -11.8184  -72.6737  -21.8752 O   0  0  0  0  0  0  0  0  0  0  0  0
  -13.0864  -71.1614  -20.5293 C   0  0  0  0  0  0  0  0  0  0  0  0
  -13.5956  -72.1736  -20.0214 O   0  0  0  0  0  0  0  0  0  0  0  0
  -13.7122  -69.7984  -20.3668 C   0  0  0  0  0  0  0  0  0  0  0  0
  -14.5338  -69.4888  -21.4081 F   0  0  0  0  0  0  0  0  0  0  0  0
  -12.8038  -68.7928  -20.2752 F   0  0  0  0  0  0  0  0  0  0  0  0
  -10.5584  -71.1588  -20.5213 C   0  0  0  0  0  0  0  0  0  0  0  0
  -10.4038  -71.9093  -19.3483 C   0  0  0  0  0  0  0  0  0  0  0  0
   -9.1974  -71.8631  -18.6525 C   0  0  0  0  0  0  0  0  0  0  0  0
   -8.1609  -71.0863  -19.1467 C   0  0  0  0  0  0  0  0  0  0  0  0
   -8.3861  -70.3652  -20.3059 C   0  0  0  0  0  0  0  0  0  0  0  0
   -9.5564  -70.3707  -20.9841 N   0  0  0  0  0  0  0  0  0  0  0  0
  2  1  1  6
  2  3  1  0
  2  4  1  0
  4  5  2  0
  4  6  1  0
  6  7  1  0
  6  8  1  0
  2  9  1  0
  9 10  2  0
 10 11  1  0
 11 12  2  0
 12 13  1  0
 13 14  2  0
 14  9  1  0
M  END
>  <SLURM_JOB_NAME>  (207) 
BulkDock.place:Flavi_NS5_RdRp:RdRp_knitwork_thumb_site_2_impure_split4000_batch000

>  <fragmenstein_error>  (207) 
['']

>  <HIPPO Compound ID>  (207) 
6531

>  <alias>  (207) 
None

>  <energy_score>  (207) 
-25.840921

>  <exports>  (207) 
['/opt/xchem-fragalysis-2/maxwin/BulkDock/OUTPUTS/RdRp_knitwork_thumb_site_2_impure_split4000_batch000_211013.sdf']

>  <fragmenstein_outcome>  (207) 
['acceptable']

>  <fragmenstein_mode>  (207) 
['expansion']

>  <HIPPO Pose ID>  (207) 
51821

>  <name>  (207) 
MHXYYYOIIYIRRP-SECBINFHSA-N

>  <fragmenstein_runtime>  (207) 
[2.089622974395752]

>  <csv_name>  (207) 
RdRp_knitwork_thumb_site_2_impure_split4000_batch000.csv

>  <inchikey>  (207) 
MHXYYYOIIYIRRP-SECBINFHSA-N

>  <original SMILES>  (207) 
C[C@](O)(C(=O)C(F)F)c1ccccn1

>  <scratch_subdir>  (207) 
['/opt/xchem-fragalysis-2/maxwin/BulkDock/SCRATCH/211013/C6531-P50']

>  <tags>  (207) 
['Fragmenstein placed']

>  <distance_score>  (207) 
0.947179

>  <original ID>  (207) 
MHXYYYOIIYIRRP-SECBINFHSA-N

>  <ref_mols>  (207) 
d0174a,d0615a

>  <SLURM_JOB_ID>  (207) 
211013

>  <ref_pdb>  (207) 
d0615a

$$$$
51823
     RDKit          3D

 13 13  0  0  0  0  0  0  0  0999 V2000
  -13.3835  -72.3612  -20.6970 C   0  0  0  0  0  0  0  0  0  0  0  0
  -13.1665  -70.8922  -21.0340 C   0  0  1  0  0  0  0  0  0  0  0  0
  -13.9319  -70.6595  -22.2411 O   0  0  0  0  0  0  0  0  0  0  0  0
  -13.7707  -69.9292  -20.0213 C   0  0  0  0  0  0  0  0  0  0  0  0
  -14.1125  -70.2354  -18.8775 O   0  0  0  0  0  0  0  0  0  0  0  0
  -11.7107  -70.5323  -21.3604 C   0  0  0  0  0  0  0  0  0  0  0  0
  -11.4643  -69.9298  -22.4114 O   0  0  0  0  0  0  0  0  0  0  0  0
  -10.5827  -70.8510  -20.4428 C   0  0  0  0  0  0  0  0  0  0  0  0
  -10.7236  -71.2251  -19.1057 C   0  0  0  0  0  0  0  0  0  0  0  0
   -9.5886  -71.5297  -18.3503 C   0  0  0  0  0  0  0  0  0  0  0  0
   -8.3448  -71.4257  -18.9495 C   0  0  0  0  0  0  0  0  0  0  0  0
   -8.1698  -71.0320  -20.2259 N   0  0  0  0  0  0  0  0  0  0  0  0
   -9.2866  -70.7566  -20.9450 C   0  0  0  0  0  0  0  0  0  0  0  0
  2  1  1  1
  2  3  1  0
  2  4  1  0
  4  5  2  0
  2  6  1  0
  6  7  2  0
  6  8  1  0
  8  9  2  0
  9 10  1  0
 10 11  2  0
 11 12  1  0
 12 13  2  0
 13  8  1  0
M  END
>  <SLURM_JOB_NAME>  (208) 
BulkDock.place:Flavi_NS5_RdRp:RdRp_knitwork_thumb_site_2_impure_split4000_batch000

>  <fragmenstein_error>  (208) 
['']

>  <HIPPO Compound ID>  (208) 
6533

>  <alias>  (208) 
None

>  <energy_score>  (208) 
-178.075338

>  <exports>  (208) 
['/opt/xchem-fragalysis-2/maxwin/BulkDock/OUTPUTS/RdRp_knitwork_thumb_site_2_impure_split4000_batch000_211013.sdf']

>  <fragmenstein_outcome>  (208) 
['acceptable']

>  <fragmenstein_mode>  (208) 
['expansion']

>  <HIPPO Pose ID>  (208) 
51823

>  <name>  (208) 
HXNOWCAYKFJUHZ-SECBINFHSA-N

>  <fragmenstein_runtime>  (208) 
[1.6203148365020752]

>  <csv_name>  (208) 
RdRp_knitwork_thumb_site_2_impure_split4000_batch000.csv

>  <inchikey>  (208) 
HXNOWCAYKFJUHZ-SECBINFHSA-N

>  <original SMILES>  (208) 
C[C@@](O)(C=O)C(=O)c1cccnc1

>  <scratch_subdir>  (208) 
['/opt/xchem-fragalysis-2/maxwin/BulkDock/SCRATCH/211013/C6533-P17']

>  <tags>  (208) 
['Fragmenstein placed']

>  <distance_score>  (208) 
0.731757

>  <original ID>  (208) 
HXNOWCAYKFJUHZ-SECBINFHSA-N

>  <ref_mols>  (208) 
d0174a,d0615a

>  <SLURM_JOB_ID>  (208) 
211013

>  <ref_pdb>  (208) 
d0174a

$$$$
51824
     RDKit          3D

 13 13  0  0  0  0  0  0  0  0999 V2000
  -13.2957  -72.3825  -20.7254 C   0  0  0  0  0  0  0  0  0  0  0  0
  -13.1109  -70.9004  -21.0235 C   0  0  1  0  0  0  0  0  0  0  0  0
  -13.8800  -70.6530  -22.2243 O   0  0  0  0  0  0  0  0  0  0  0  0
  -13.7291  -69.9752  -19.9832 C   0  0  0  0  0  0  0  0  0  0  0  0
  -14.0483  -70.3146  -18.8423 O   0  0  0  0  0  0  0  0  0  0  0  0
  -11.6603  -70.5144  -21.3406 C   0  0  0  0  0  0  0  0  0  0  0  0
  -11.4171  -69.9002  -22.3852 O   0  0  0  0  0  0  0  0  0  0  0  0
  -10.5315  -70.8306  -20.4231 C   0  0  0  0  0  0  0  0  0  0  0  0
  -10.6723  -71.2248  -19.0918 C   0  0  0  0  0  0  0  0  0  0  0  0
   -9.5362  -71.5263  -18.3370 C   0  0  0  0  0  0  0  0  0  0  0  0
   -8.2920  -71.4012  -18.9312 C   0  0  0  0  0  0  0  0  0  0  0  0
   -8.1178  -70.9905  -20.2023 N   0  0  0  0  0  0  0  0  0  0  0  0
   -9.2353  -70.7163  -20.9205 C   0  0  0  0  0  0  0  0  0  0  0  0
  2  1  1  1
  2  3  1  0
  2  4  1  0
  4  5  2  0
  2  6  1  0
  6  7  2  0
  6  8  1  0
  8  9  2  0
  9 10  1  0
 10 11  2  0
 11 12  1  0
 12 13  2  0
 13  8  1  0
M  END
>  <SLURM_JOB_NAME>  (209) 
BulkDock.place:Flavi_NS5_RdRp:RdRp_knitwork_thumb_site_2_impure_split4000_batch000

>  <fragmenstein_error>  (209) 
['']

>  <HIPPO Compound ID>  (209) 
6533

>  <alias>  (209) 
None

>  <energy_score>  (209) 
-178.133972

>  <exports>  (209) 
['/opt/xchem-fragalysis-2/maxwin/BulkDock/OUTPUTS/RdRp_knitwork_thumb_site_2_impure_split4000_batch000_211013.sdf']

>  <fragmenstein_outcome>  (209) 
['acceptable']

>  <fragmenstein_mode>  (209) 
['expansion']

>  <HIPPO Pose ID>  (209) 
51824

>  <name>  (209) 
HXNOWCAYKFJUHZ-SECBINFHSA-N

>  <fragmenstein_runtime>  (209) 
[1.8047001361846924]

>  <csv_name>  (209) 
RdRp_knitwork_thumb_site_2_impure_split4000_batch000.csv

>  <inchikey>  (209) 
HXNOWCAYKFJUHZ-SECBINFHSA-N

>  <original SMILES>  (209) 
C[C@@](O)(C=O)C(=O)c1cccnc1

>  <scratch_subdir>  (209) 
['/opt/xchem-fragalysis-2/maxwin/BulkDock/SCRATCH/211013/C6533-P50']

>  <tags>  (209) 
['Fragmenstein placed']

>  <distance_score>  (209) 
0.738897

>  <original ID>  (209) 
HXNOWCAYKFJUHZ-SECBINFHSA-N

>  <ref_mols>  (209) 
d0174a,d0615a

>  <SLURM_JOB_ID>  (209) 
211013

>  <ref_pdb>  (209) 
d0615a

$$$$
51831
     RDKit          3D

 15 15  0  0  0  0  0  0  0  0999 V2000
  -11.6202  -70.5435  -22.6857 C   0  0  0  0  0  0  0  0  0  0  0  0
  -11.7699  -71.3433  -21.3947 C   0  0  2  0  0  0  0  0  0  0  0  0
  -13.1655  -71.2310  -20.8584 N   0  0  0  0  0  0  0  0  0  0  0  0
  -13.7367  -69.8024  -20.2148 S   0  0  0  0  0  0  0  0  0  0  0  0
  -12.7209  -68.7852  -20.2869 O   0  0  0  0  0  0  0  0  0  0  0  0
  -14.2834  -70.1941  -18.9241 O   0  0  0  0  0  0  0  0  0  0  0  0
  -15.1210  -69.3079  -21.2248 C   0  0  0  0  0  0  0  0  0  0  0  0
  -14.8471  -69.5612  -22.6259 C   0  0  0  0  0  0  0  0  0  0  0  0
  -14.7593  -69.7910  -23.7604 N   0  0  0  0  0  0  0  0  0  0  0  0
  -10.6197  -71.1748  -20.4013 C   0  0  0  0  0  0  0  0  0  0  0  0
  -10.7406  -71.6164  -19.0825 C   0  0  0  0  0  0  0  0  0  0  0  0
   -9.6144  -71.6269  -18.2595 C   0  0  0  0  0  0  0  0  0  0  0  0
   -8.3928  -71.2051  -18.7664 C   0  0  0  0  0  0  0  0  0  0  0  0
   -8.3501  -70.7713  -20.0777 C   0  0  0  0  0  0  0  0  0  0  0  0
   -9.4248  -70.7576  -20.8953 N   0  0  0  0  0  0  0  0  0  0  0  0
  2  1  1  6
  2  3  1  0
  3  4  1  0
  4  5  2  0
  4  6  2  0
  4  7  1  0
  7  8  1  0
  8  9  3  0
  2 10  1  0
 10 11  2  0
 11 12  1  0
 12 13  2  0
 13 14  1  0
 14 15  2  0
 15 10  1  0
M  END
>  <SLURM_JOB_NAME>  (210) 
BulkDock.place:Flavi_NS5_RdRp:RdRp_knitwork_thumb_site_2_impure_split4000_batch000

>  <fragmenstein_error>  (210) 
['']

>  <HIPPO Compound ID>  (210) 
6543

>  <alias>  (210) 
None

>  <energy_score>  (210) 
-26.157761

>  <exports>  (210) 
['/opt/xchem-fragalysis-2/maxwin/BulkDock/OUTPUTS/RdRp_knitwork_thumb_site_2_impure_split4000_batch000_211013.sdf']

>  <fragmenstein_outcome>  (210) 
['acceptable']

>  <fragmenstein_mode>  (210) 
['expansion']

>  <HIPPO Pose ID>  (210) 
51831

>  <name>  (210) 
MHZFNJCMRZQBRV-QMMMGPOBSA-N

>  <fragmenstein_runtime>  (210) 
[1.5990748405456543]

>  <csv_name>  (210) 
RdRp_knitwork_thumb_site_2_impure_split4000_batch000.csv

>  <inchikey>  (210) 
MHZFNJCMRZQBRV-QMMMGPOBSA-N

>  <original SMILES>  (210) 
C[C@H](NS(=O)(=O)CC#N)c1ccccn1

>  <scratch_subdir>  (210) 
['/opt/xchem-fragalysis-2/maxwin/BulkDock/SCRATCH/211013/C6543-P17']

>  <tags>  (210) 
['Fragmenstein placed']

>  <distance_score>  (210) 
0.573141

>  <original ID>  (210) 
MHZFNJCMRZQBRV-QMMMGPOBSA-N

>  <ref_mols>  (210) 
d0174a,d0615a

>  <SLURM_JOB_ID>  (210) 
211013

>  <ref_pdb>  (210) 
d0174a

$$$$
51832
     RDKit          3D

 15 15  0  0  0  0  0  0  0  0999 V2000
  -11.6979  -70.4949  -22.7065 C   0  0  0  0  0  0  0  0  0  0  0  0
  -11.8101  -71.3071  -21.4189 C   0  0  2  0  0  0  0  0  0  0  0  0
  -13.2002  -71.2243  -20.8635 N   0  0  0  0  0  0  0  0  0  0  0  0
  -13.7758  -69.8111  -20.1844 S   0  0  0  0  0  0  0  0  0  0  0  0
  -12.7874  -68.7707  -20.2998 O   0  0  0  0  0  0  0  0  0  0  0  0
  -14.2496  -70.2264  -18.8732 O   0  0  0  0  0  0  0  0  0  0  0  0
  -15.2153  -69.3490  -21.1349 C   0  0  0  0  0  0  0  0  0  0  0  0
  -14.9778  -69.5721  -22.5493 C   0  0  0  0  0  0  0  0  0  0  0  0
  -14.9244  -69.7860  -23.6896 N   0  0  0  0  0  0  0  0  0  0  0  0
  -10.6487  -71.1302  -20.4398 C   0  0  0  0  0  0  0  0  0  0  0  0
  -10.7464  -71.5784  -19.1210 C   0  0  0  0  0  0  0  0  0  0  0  0
   -9.6091  -71.5809  -18.3132 C   0  0  0  0  0  0  0  0  0  0  0  0
   -8.3990  -71.1440  -18.8345 C   0  0  0  0  0  0  0  0  0  0  0  0
   -8.3793  -70.7037  -20.1442 C   0  0  0  0  0  0  0  0  0  0  0  0
   -9.4651  -70.6990  -20.9479 N   0  0  0  0  0  0  0  0  0  0  0  0
  2  1  1  6
  2  3  1  0
  3  4  1  0
  4  5  2  0
  4  6  2  0
  4  7  1  0
  7  8  1  0
  8  9  3  0
  2 10  1  0
 10 11  2  0
 11 12  1  0
 12 13  2  0
 13 14  1  0
 14 15  2  0
 15 10  1  0
M  END
>  <SLURM_JOB_NAME>  (211) 
BulkDock.place:Flavi_NS5_RdRp:RdRp_knitwork_thumb_site_2_impure_split4000_batch000

>  <fragmenstein_error>  (211) 
['']

>  <HIPPO Compound ID>  (211) 
6543

>  <alias>  (211) 
None

>  <energy_score>  (211) 
-26.475849

>  <exports>  (211) 
['/opt/xchem-fragalysis-2/maxwin/BulkDock/OUTPUTS/RdRp_knitwork_thumb_site_2_impure_split4000_batch000_211013.sdf']

>  <fragmenstein_outcome>  (211) 
['acceptable']

>  <fragmenstein_mode>  (211) 
['expansion']

>  <HIPPO Pose ID>  (211) 
51832

>  <name>  (211) 
MHZFNJCMRZQBRV-QMMMGPOBSA-N

>  <fragmenstein_runtime>  (211) 
[1.593364953994751]

>  <csv_name>  (211) 
RdRp_knitwork_thumb_site_2_impure_split4000_batch000.csv

>  <inchikey>  (211) 
MHZFNJCMRZQBRV-QMMMGPOBSA-N

>  <original SMILES>  (211) 
C[C@H](NS(=O)(=O)CC#N)c1ccccn1

>  <scratch_subdir>  (211) 
['/opt/xchem-fragalysis-2/maxwin/BulkDock/SCRATCH/211013/C6543-P50']

>  <tags>  (211) 
['Fragmenstein placed']

>  <distance_score>  (211) 
0.604589

>  <original ID>  (211) 
MHZFNJCMRZQBRV-QMMMGPOBSA-N

>  <ref_mols>  (211) 
d0174a,d0615a

>  <SLURM_JOB_ID>  (211) 
211013

>  <ref_pdb>  (211) 
d0615a

$$$$
51838
     RDKit          3D

 14 14  0  0  0  0  0  0  0  0999 V2000
  -15.8872  -70.2932  -24.0954 C   0  0  0  0  0  0  0  0  0  0  0  0
  -15.1801  -69.8862  -22.8791 C   0  0  0  0  0  0  0  0  0  0  0  0
  -14.5997  -69.5731  -21.8757 C   0  0  0  0  0  0  0  0  0  0  0  0
  -13.8195  -69.2143  -20.6861 C   0  0  0  0  0  0  0  0  0  0  0  0
  -13.0177  -70.3934  -20.1806 C   0  0  0  0  0  0  0  0  0  0  0  0
  -13.3349  -70.9196  -19.1046 O   0  0  0  0  0  0  0  0  0  0  0  0
  -11.8527  -70.9115  -21.0705 C   0  0  1  0  0  0  0  0  0  0  0  0
  -11.6156  -70.1174  -22.2297 O   0  0  0  0  0  0  0  0  0  0  0  0
  -10.5560  -71.0892  -20.3044 C   0  0  0  0  0  0  0  0  0  0  0  0
  -10.4759  -71.9602  -19.2088 C   0  0  0  0  0  0  0  0  0  0  0  0
   -9.2678  -72.1453  -18.5405 C   0  0  0  0  0  0  0  0  0  0  0  0
   -8.1572  -71.4598  -18.9954 C   0  0  0  0  0  0  0  0  0  0  0  0
   -8.1833  -70.6145  -20.0439 N   0  0  0  0  0  0  0  0  0  0  0  0
   -9.3727  -70.4525  -20.6748 C   0  0  0  0  0  0  0  0  0  0  0  0
  1  2  1  0
  2  3  3  0
  3  4  1  0
  4  5  1  0
  5  6  2  0
  5  7  1  0
  7  8  1  6
  7  9  1  0
  9 10  2  0
 10 11  1  0
 11 12  2  0
 12 13  1  0
 13 14  2  0
 14  9  1  0
M  END
>  <SLURM_JOB_NAME>  (212) 
BulkDock.place:Flavi_NS5_RdRp:RdRp_knitwork_thumb_site_2_impure_split4000_batch000

>  <fragmenstein_error>  (212) 
['']

>  <HIPPO Compound ID>  (212) 
6547

>  <alias>  (212) 
None

>  <energy_score>  (212) 
-31.037065

>  <exports>  (212) 
['/opt/xchem-fragalysis-2/maxwin/BulkDock/OUTPUTS/RdRp_knitwork_thumb_site_2_impure_split4000_batch000_211013.sdf']

>  <fragmenstein_outcome>  (212) 
['acceptable']

>  <fragmenstein_mode>  (212) 
['expansion']

>  <HIPPO Pose ID>  (212) 
51838

>  <name>  (212) 
MYJLURXSEFKVLB-NSHDSACASA-N

>  <fragmenstein_runtime>  (212) 
[1.101552963256836]

>  <csv_name>  (212) 
RdRp_knitwork_thumb_site_2_impure_split4000_batch000.csv

>  <inchikey>  (212) 
MYJLURXSEFKVLB-NSHDSACASA-N

>  <original SMILES>  (212) 
CC#CCC(=O)[C@@H](O)c1cccnc1

>  <scratch_subdir>  (212) 
['/opt/xchem-fragalysis-2/maxwin/BulkDock/SCRATCH/211013/C6547-P17']

>  <tags>  (212) 
['Fragmenstein placed']

>  <distance_score>  (212) 
0.6492

>  <original ID>  (212) 
MYJLURXSEFKVLB-NSHDSACASA-N

>  <ref_mols>  (212) 
d0174a,d0615a

>  <SLURM_JOB_ID>  (212) 
211013

>  <ref_pdb>  (212) 
d0174a

$$$$
51839
     RDKit          3D

 14 14  0  0  0  0  0  0  0  0999 V2000
  -15.8151  -70.3328  -24.0996 C   0  0  0  0  0  0  0  0  0  0  0  0
  -15.1359  -69.9325  -22.8651 C   0  0  0  0  0  0  0  0  0  0  0  0
  -14.5733  -69.6352  -21.8469 C   0  0  0  0  0  0  0  0  0  0  0  0
  -13.8093  -69.3098  -20.6377 C   0  0  0  0  0  0  0  0  0  0  0  0
  -12.9942  -70.4976  -20.1720 C   0  0  0  0  0  0  0  0  0  0  0  0
  -13.3170  -71.0802  -19.1267 O   0  0  0  0  0  0  0  0  0  0  0  0
  -11.8014  -70.9484  -21.0632 C   0  0  1  0  0  0  0  0  0  0  0  0
  -11.5772  -70.1072  -22.1918 O   0  0  0  0  0  0  0  0  0  0  0  0
  -10.5091  -71.1036  -20.2838 C   0  0  0  0  0  0  0  0  0  0  0  0
  -10.4191  -71.9847  -19.1971 C   0  0  0  0  0  0  0  0  0  0  0  0
   -9.2144  -72.1470  -18.5165 C   0  0  0  0  0  0  0  0  0  0  0  0
   -8.1161  -71.4292  -18.9504 C   0  0  0  0  0  0  0  0  0  0  0  0
   -8.1517  -70.5739  -19.9904 N   0  0  0  0  0  0  0  0  0  0  0  0
   -9.3366  -70.4365  -20.6349 C   0  0  0  0  0  0  0  0  0  0  0  0
  1  2  1  0
  2  3  3  0
  3  4  1  0
  4  5  1  0
  5  6  2  0
  5  7  1  0
  7  8  1  6
  7  9  1  0
  9 10  2  0
 10 11  1  0
 11 12  2  0
 12 13  1  0
 13 14  2  0
 14  9  1  0
M  END
>  <SLURM_JOB_NAME>  (213) 
BulkDock.place:Flavi_NS5_RdRp:RdRp_knitwork_thumb_site_2_impure_split4000_batch000

>  <fragmenstein_error>  (213) 
['']

>  <HIPPO Compound ID>  (213) 
6547

>  <alias>  (213) 
None

>  <energy_score>  (213) 
-30.958376

>  <exports>  (213) 
['/opt/xchem-fragalysis-2/maxwin/BulkDock/OUTPUTS/RdRp_knitwork_thumb_site_2_impure_split4000_batch000_211013.sdf']

>  <fragmenstein_outcome>  (213) 
['acceptable']

>  <fragmenstein_mode>  (213) 
['expansion']

>  <HIPPO Pose ID>  (213) 
51839

>  <name>  (213) 
MYJLURXSEFKVLB-NSHDSACASA-N

>  <fragmenstein_runtime>  (213) 
[1.269472360610962]

>  <csv_name>  (213) 
RdRp_knitwork_thumb_site_2_impure_split4000_batch000.csv

>  <inchikey>  (213) 
MYJLURXSEFKVLB-NSHDSACASA-N

>  <original SMILES>  (213) 
CC#CCC(=O)[C@@H](O)c1cccnc1

>  <scratch_subdir>  (213) 
['/opt/xchem-fragalysis-2/maxwin/BulkDock/SCRATCH/211013/C6547-P50']

>  <tags>  (213) 
['Fragmenstein placed']

>  <distance_score>  (213) 
0.630364

>  <original ID>  (213) 
MYJLURXSEFKVLB-NSHDSACASA-N

>  <ref_mols>  (213) 
d0174a,d0615a

>  <SLURM_JOB_ID>  (213) 
211013

>  <ref_pdb>  (213) 
d0615a

$$$$
51841
     RDKit          3D

 18 18  0  0  0  0  0  0  0  0999 V2000
  -10.1853  -71.1016  -23.4274 C   0  0  0  0  0  0  0  0  0  0  0  0
  -11.4858  -71.3704  -22.6867 C   0  0  0  0  0  0  0  0  0  0  0  0
  -11.6602  -70.5862  -21.3739 C   0  0  1  0  0  0  0  0  0  0  0  0
  -13.0297  -70.8870  -20.8821 N   0  0  0  0  0  0  0  0  0  0  0  0
  -13.8562  -69.6772  -20.1010 S   0  0  0  0  0  0  0  0  0  0  0  0
  -13.0329  -68.4975  -20.0619 O   0  0  0  0  0  0  0  0  0  0  0  0
  -14.3577  -70.2766  -18.8785 O   0  0  0  0  0  0  0  0  0  0  0  0
  -15.2547  -69.3512  -21.1611 C   0  0  0  0  0  0  0  0  0  0  0  0
  -15.0175  -69.4818  -22.6630 C   0  0  0  0  0  0  0  0  0  0  0  0
  -15.8486  -70.6186  -23.2964 C   0  0  0  0  0  0  0  0  0  0  0  0
  -15.3904  -72.0056  -22.8534 C   0  0  0  0  0  0  0  0  0  0  0  0
  -15.8063  -70.5245  -24.8205 C   0  0  0  0  0  0  0  0  0  0  0  0
  -10.5371  -70.8789  -20.3836 C   0  0  0  0  0  0  0  0  0  0  0  0
  -10.6730  -71.7792  -19.3264 C   0  0  0  0  0  0  0  0  0  0  0  0
   -9.5590  -72.0881  -18.5443 C   0  0  0  0  0  0  0  0  0  0  0  0
   -8.3337  -71.5064  -18.8364 C   0  0  0  0  0  0  0  0  0  0  0  0
   -8.2811  -70.6096  -19.8842 C   0  0  0  0  0  0  0  0  0  0  0  0
   -9.3471  -70.2786  -20.6429 N   0  0  0  0  0  0  0  0  0  0  0  0
  1  2  1  0
  3  2  1  6
  3  4  1  0
  4  5  1  0
  5  6  2  0
  5  7  2  0
  5  8  1  0
  8  9  1  0
  9 10  1  0
 10 11  1  0
 10 12  1  0
  3 13  1  0
 13 14  2  0
 14 15  1  0
 15 16  2  0
 16 17  1  0
 17 18  2  0
 18 13  1  0
M  END
>  <SLURM_JOB_NAME>  (214) 
BulkDock.place:Flavi_NS5_RdRp:RdRp_knitwork_thumb_site_2_impure_split4000_batch000

>  <fragmenstein_error>  (214) 
['']

>  <HIPPO Compound ID>  (214) 
6567

>  <alias>  (214) 
None

>  <energy_score>  (214) 
-33.126256

>  <exports>  (214) 
['/opt/xchem-fragalysis-2/maxwin/BulkDock/OUTPUTS/RdRp_knitwork_thumb_site_2_impure_split4000_batch000_211013.sdf']

>  <fragmenstein_outcome>  (214) 
['acceptable']

>  <fragmenstein_mode>  (214) 
['expansion']

>  <HIPPO Pose ID>  (214) 
51841

>  <name>  (214) 
VCOMALJTOWPSSG-GFCCVEGCSA-N

>  <fragmenstein_runtime>  (214) 
[2.53985595703125]

>  <csv_name>  (214) 
RdRp_knitwork_thumb_site_2_impure_split4000_batch000.csv

>  <inchikey>  (214) 
VCOMALJTOWPSSG-GFCCVEGCSA-N

>  <original SMILES>  (214) 
CC[C@@H](NS(=O)(=O)CCC(C)C)c1ccccn1

>  <scratch_subdir>  (214) 
['/opt/xchem-fragalysis-2/maxwin/BulkDock/SCRATCH/211013/C6567-P17']

>  <tags>  (214) 
['Fragmenstein placed']

>  <distance_score>  (214) 
0.693041

>  <original ID>  (214) 
VCOMALJTOWPSSG-GFCCVEGCSA-N

>  <ref_mols>  (214) 
d0174a,d0615a

>  <SLURM_JOB_ID>  (214) 
211013

>  <ref_pdb>  (214) 
d0174a

$$$$
51843
     RDKit          3D

 18 18  0  0  0  0  0  0  0  0999 V2000
  -10.1376  -71.1263  -23.3912 C   0  0  0  0  0  0  0  0  0  0  0  0
  -11.4664  -71.3405  -22.6825 C   0  0  0  0  0  0  0  0  0  0  0  0
  -11.6536  -70.5642  -21.3650 C   0  0  1  0  0  0  0  0  0  0  0  0
  -13.0173  -70.8968  -20.8757 N   0  0  0  0  0  0  0  0  0  0  0  0
  -13.8702  -69.7214  -20.0669 S   0  0  0  0  0  0  0  0  0  0  0  0
  -13.0909  -68.5120  -20.0421 O   0  0  0  0  0  0  0  0  0  0  0  0
  -14.3175  -70.3507  -18.8384 O   0  0  0  0  0  0  0  0  0  0  0  0
  -15.3039  -69.4481  -21.1025 C   0  0  0  0  0  0  0  0  0  0  0  0
  -15.0508  -69.4917  -22.6089 C   0  0  0  0  0  0  0  0  0  0  0  0
  -15.8049  -70.6472  -23.3017 C   0  0  0  0  0  0  0  0  0  0  0  0
  -15.2839  -72.0226  -22.8952 C   0  0  0  0  0  0  0  0  0  0  0  0
  -15.7307  -70.4998  -24.8206 C   0  0  0  0  0  0  0  0  0  0  0  0
  -10.5268  -70.8448  -20.3754 C   0  0  0  0  0  0  0  0  0  0  0  0
  -10.6424  -71.7686  -19.3362 C   0  0  0  0  0  0  0  0  0  0  0  0
   -9.5230  -72.0653  -18.5572 C   0  0  0  0  0  0  0  0  0  0  0  0
   -8.3121  -71.4476  -18.8347 C   0  0  0  0  0  0  0  0  0  0  0  0
   -8.2796  -70.5290  -19.8645 C   0  0  0  0  0  0  0  0  0  0  0  0
   -9.3513  -70.2110  -20.6208 N   0  0  0  0  0  0  0  0  0  0  0  0
  1  2  1  0
  3  2  1  6
  3  4  1  0
  4  5  1  0
  5  6  2  0
  5  7  2  0
  5  8  1  0
  8  9  1  0
  9 10  1  0
 10 11  1  0
 10 12  1  0
  3 13  1  0
 13 14  2  0
 14 15  1  0
 15 16  2  0
 16 17  1  0
 17 18  2  0
 18 13  1  0
M  END
>  <SLURM_JOB_NAME>  (215) 
BulkDock.place:Flavi_NS5_RdRp:RdRp_knitwork_thumb_site_2_impure_split4000_batch000

>  <fragmenstein_error>  (215) 
['']

>  <HIPPO Compound ID>  (215) 
6567

>  <alias>  (215) 
None

>  <energy_score>  (215) 
-33.274854

>  <exports>  (215) 
['/opt/xchem-fragalysis-2/maxwin/BulkDock/OUTPUTS/RdRp_knitwork_thumb_site_2_impure_split4000_batch000_211013.sdf']

>  <fragmenstein_outcome>  (215) 
['acceptable']

>  <fragmenstein_mode>  (215) 
['expansion']

>  <HIPPO Pose ID>  (215) 
51843

>  <name>  (215) 
VCOMALJTOWPSSG-GFCCVEGCSA-N

>  <fragmenstein_runtime>  (215) 
[2.4985311031341553]

>  <csv_name>  (215) 
RdRp_knitwork_thumb_site_2_impure_split4000_batch000.csv

>  <inchikey>  (215) 
VCOMALJTOWPSSG-GFCCVEGCSA-N

>  <original SMILES>  (215) 
CC[C@@H](NS(=O)(=O)CCC(C)C)c1ccccn1

>  <scratch_subdir>  (215) 
['/opt/xchem-fragalysis-2/maxwin/BulkDock/SCRATCH/211013/C6567-P50']

>  <tags>  (215) 
['Fragmenstein placed']

>  <distance_score>  (215) 
0.701764

>  <original ID>  (215) 
VCOMALJTOWPSSG-GFCCVEGCSA-N

>  <ref_mols>  (215) 
d0174a,d0615a

>  <SLURM_JOB_ID>  (215) 
211013

>  <ref_pdb>  (215) 
d0615a

$$$$
51852
     RDKit          3D

 13 13  0  0  0  0  0  0  0  0999 V2000
  -14.9383  -69.4473  -22.9327 C   0  0  0  0  0  0  0  0  0  0  0  0
  -14.8054  -70.0288  -21.6404 O   0  0  0  0  0  0  0  0  0  0  0  0
  -14.0409  -69.1847  -20.7673 C   0  0  0  0  0  0  0  0  0  0  0  0
  -12.9920  -70.0332  -20.0474 C   0  0  1  0  0  0  0  0  0  0  0  0
  -13.6181  -71.2064  -19.5424 O   0  0  0  0  0  0  0  0  0  0  0  0
  -11.7628  -70.2878  -20.9308 C   0  0  0  0  0  0  0  0  0  0  0  0
  -11.7256  -70.0399  -22.1346 O   0  0  0  0  0  0  0  0  0  0  0  0
  -10.5303  -70.7733  -20.2639 C   0  0  0  0  0  0  0  0  0  0  0  0
  -10.5294  -71.4786  -19.0583 C   0  0  0  0  0  0  0  0  0  0  0  0
   -9.3170  -71.8764  -18.4946 C   0  0  0  0  0  0  0  0  0  0  0  0
   -8.1440  -71.5431  -19.1506 C   0  0  0  0  0  0  0  0  0  0  0  0
   -8.1117  -70.8499  -20.3066 N   0  0  0  0  0  0  0  0  0  0  0  0
   -9.3025  -70.4951  -20.8491 C   0  0  0  0  0  0  0  0  0  0  0  0
  1  2  1  0
  2  3  1  0
  3  4  1  0
  4  5  1  6
  4  6  1  0
  6  7  2  0
  6  8  1  0
  8  9  2  0
  9 10  1  0
 10 11  2  0
 11 12  1  0
 12 13  2  0
 13  8  1  0
M  END
>  <SLURM_JOB_NAME>  (216) 
BulkDock.place:Flavi_NS5_RdRp:RdRp_knitwork_thumb_site_2_impure_split4000_batch000

>  <fragmenstein_error>  (216) 
['']

>  <HIPPO Compound ID>  (216) 
6588

>  <alias>  (216) 
None

>  <energy_score>  (216) 
-36.680912

>  <exports>  (216) 
['/opt/xchem-fragalysis-2/maxwin/BulkDock/OUTPUTS/RdRp_knitwork_thumb_site_2_impure_split4000_batch000_211013.sdf']

>  <fragmenstein_outcome>  (216) 
['acceptable']

>  <fragmenstein_mode>  (216) 
['expansion']

>  <HIPPO Pose ID>  (216) 
51852

>  <name>  (216) 
AVYAGGCYZGQJEY-MRVPVSSYSA-N

>  <fragmenstein_runtime>  (216) 
[1.1457643508911133]

>  <csv_name>  (216) 
RdRp_knitwork_thumb_site_2_impure_split4000_batch000.csv

>  <inchikey>  (216) 
AVYAGGCYZGQJEY-MRVPVSSYSA-N

>  <original SMILES>  (216) 
COC[C@@H](O)C(=O)c1cccnc1

>  <scratch_subdir>  (216) 
['/opt/xchem-fragalysis-2/maxwin/BulkDock/SCRATCH/211013/C6588-P17']

>  <tags>  (216) 
['Fragmenstein placed']

>  <distance_score>  (216) 
0.686772

>  <original ID>  (216) 
AVYAGGCYZGQJEY-MRVPVSSYSA-N

>  <ref_mols>  (216) 
d0174a,d0615a

>  <SLURM_JOB_ID>  (216) 
211013

>  <ref_pdb>  (216) 
d0174a

$$$$
51853
     RDKit          3D

 13 13  0  0  0  0  0  0  0  0999 V2000
  -14.5087  -69.5262  -23.0319 C   0  0  0  0  0  0  0  0  0  0  0  0
  -14.9889  -69.8580  -21.7334 O   0  0  0  0  0  0  0  0  0  0  0  0
  -14.1129  -69.4381  -20.6781 C   0  0  0  0  0  0  0  0  0  0  0  0
  -13.0835  -70.5129  -20.3019 C   0  0  1  0  0  0  0  0  0  0  0  0
  -13.6241  -71.8159  -20.4740 O   0  0  0  0  0  0  0  0  0  0  0  0
  -11.7493  -70.3534  -21.0354 C   0  0  0  0  0  0  0  0  0  0  0  0
  -11.6377  -69.8379  -22.1456 O   0  0  0  0  0  0  0  0  0  0  0  0
  -10.5249  -70.8305  -20.3427 C   0  0  0  0  0  0  0  0  0  0  0  0
  -10.5467  -71.7502  -19.2905 C   0  0  0  0  0  0  0  0  0  0  0  0
   -9.3512  -72.1251  -18.6776 C   0  0  0  0  0  0  0  0  0  0  0  0
   -8.1707  -71.5685  -19.1400 C   0  0  0  0  0  0  0  0  0  0  0  0
   -8.1158  -70.6775  -20.1505 N   0  0  0  0  0  0  0  0  0  0  0  0
   -9.2889  -70.3400  -20.7419 C   0  0  0  0  0  0  0  0  0  0  0  0
  1  2  1  0
  2  3  1  0
  3  4  1  0
  4  5  1  6
  4  6  1  0
  6  7  2  0
  6  8  1  0
  8  9  2  0
  9 10  1  0
 10 11  2  0
 11 12  1  0
 12 13  2  0
 13  8  1  0
M  END
>  <SLURM_JOB_NAME>  (217) 
BulkDock.place:Flavi_NS5_RdRp:RdRp_knitwork_thumb_site_2_impure_split4000_batch000

>  <fragmenstein_error>  (217) 
['']

>  <HIPPO Compound ID>  (217) 
6588

>  <alias>  (217) 
None

>  <energy_score>  (217) 
-35.508589

>  <exports>  (217) 
['/opt/xchem-fragalysis-2/maxwin/BulkDock/OUTPUTS/RdRp_knitwork_thumb_site_2_impure_split4000_batch000_211013.sdf']

>  <fragmenstein_outcome>  (217) 
['acceptable']

>  <fragmenstein_mode>  (217) 
['expansion']

>  <HIPPO Pose ID>  (217) 
51853

>  <name>  (217) 
AVYAGGCYZGQJEY-MRVPVSSYSA-N

>  <fragmenstein_runtime>  (217) 
[1.1926853656768799]

>  <csv_name>  (217) 
RdRp_knitwork_thumb_site_2_impure_split4000_batch000.csv

>  <inchikey>  (217) 
AVYAGGCYZGQJEY-MRVPVSSYSA-N

>  <original SMILES>  (217) 
COC[C@@H](O)C(=O)c1cccnc1

>  <scratch_subdir>  (217) 
['/opt/xchem-fragalysis-2/maxwin/BulkDock/SCRATCH/211013/C6588-P50']

>  <tags>  (217) 
['Fragmenstein placed']

>  <distance_score>  (217) 
0.559312

>  <original ID>  (217) 
AVYAGGCYZGQJEY-MRVPVSSYSA-N

>  <ref_mols>  (217) 
d0174a,d0615a

>  <SLURM_JOB_ID>  (217) 
211013

>  <ref_pdb>  (217) 
d0615a

$$$$
51856
     RDKit          3D

 15 15  0  0  0  0  0  0  0  0999 V2000
  -16.0328  -70.1066  -23.8824 C   0  0  0  0  0  0  0  0  0  0  0  0
  -14.8749  -69.7680  -22.9523 C   0  0  0  0  0  0  0  0  0  0  0  0
  -15.1956  -70.1950  -21.5169 C   0  0  0  0  0  0  0  0  0  0  0  0
  -14.0285  -70.0670  -20.5242 C   0  0  2  0  0  0  0  0  0  0  0  0
  -13.5844  -68.6286  -20.3589 C   0  0  0  0  0  0  0  0  0  0  0  0
  -12.9293  -71.0739  -20.8688 C   0  0  0  0  0  0  0  0  0  0  0  0
  -13.1791  -72.2855  -20.8066 O   0  0  0  0  0  0  0  0  0  0  0  0
  -11.5572  -70.5872  -21.3434 C   0  0  2  0  0  0  0  0  0  0  0  0
  -11.3337  -71.0893  -22.6553 O   0  0  0  0  0  0  0  0  0  0  0  0
  -10.3886  -70.9507  -20.4581 C   0  0  0  0  0  0  0  0  0  0  0  0
  -10.4786  -71.7375  -19.3042 C   0  0  0  0  0  0  0  0  0  0  0  0
   -9.3350  -72.0173  -18.5574 C   0  0  0  0  0  0  0  0  0  0  0  0
   -8.1271  -71.4954  -18.9830 C   0  0  0  0  0  0  0  0  0  0  0  0
   -7.9962  -70.7221  -20.0778 N   0  0  0  0  0  0  0  0  0  0  0  0
   -9.1191  -70.4783  -20.7931 C   0  0  0  0  0  0  0  0  0  0  0  0
  1  2  1  0
  2  3  1  0
  3  4  1  0
  4  5  1  6
  4  6  1  0
  6  7  2  0
  6  8  1  0
  8  9  1  6
  8 10  1  0
 10 11  2  0
 11 12  1  0
 12 13  2  0
 13 14  1  0
 14 15  2  0
 15 10  1  0
M  END
>  <SLURM_JOB_NAME>  (218) 
BulkDock.place:Flavi_NS5_RdRp:RdRp_knitwork_thumb_site_2_impure_split4000_batch000

>  <fragmenstein_error>  (218) 
['']

>  <HIPPO Compound ID>  (218) 
6590

>  <alias>  (218) 
None

>  <energy_score>  (218) 
-60.722678

>  <exports>  (218) 
['/opt/xchem-fragalysis-2/maxwin/BulkDock/OUTPUTS/RdRp_knitwork_thumb_site_2_impure_split4000_batch000_211013.sdf']

>  <fragmenstein_outcome>  (218) 
['acceptable']

>  <fragmenstein_mode>  (218) 
['expansion']

>  <HIPPO Pose ID>  (218) 
51856

>  <name>  (218) 
WIKFGDFWKIGWFF-JOYOIKCWSA-N

>  <fragmenstein_runtime>  (218) 
[1.9780631065368652]

>  <csv_name>  (218) 
RdRp_knitwork_thumb_site_2_impure_split4000_batch000.csv

>  <inchikey>  (218) 
WIKFGDFWKIGWFF-JOYOIKCWSA-N

>  <original SMILES>  (218) 
CCC[C@H](C)C(=O)[C@H](O)c1cccnc1

>  <scratch_subdir>  (218) 
['/opt/xchem-fragalysis-2/maxwin/BulkDock/SCRATCH/211013/C6590-P17']

>  <tags>  (218) 
['Fragmenstein placed']

>  <distance_score>  (218) 
0.731006

>  <original ID>  (218) 
WIKFGDFWKIGWFF-JOYOIKCWSA-N

>  <ref_mols>  (218) 
d0174a,d0615a

>  <SLURM_JOB_ID>  (218) 
211013

>  <ref_pdb>  (218) 
d0174a

$$$$
51857
     RDKit          3D

 15 15  0  0  0  0  0  0  0  0999 V2000
  -16.1058  -70.1127  -23.8311 C   0  0  0  0  0  0  0  0  0  0  0  0
  -14.9360  -69.7795  -22.9143 C   0  0  0  0  0  0  0  0  0  0  0  0
  -15.2206  -70.2601  -21.4873 C   0  0  0  0  0  0  0  0  0  0  0  0
  -14.0294  -70.1599  -20.5195 C   0  0  2  0  0  0  0  0  0  0  0  0
  -13.6101  -68.7195  -20.3057 C   0  0  0  0  0  0  0  0  0  0  0  0
  -12.9168  -71.1179  -20.9533 C   0  0  0  0  0  0  0  0  0  0  0  0
  -13.1345  -72.3369  -21.0019 O   0  0  0  0  0  0  0  0  0  0  0  0
  -11.5517  -70.5701  -21.3781 C   0  0  2  0  0  0  0  0  0  0  0  0
  -11.2699  -71.0498  -22.6895 O   0  0  0  0  0  0  0  0  0  0  0  0
  -10.3975  -70.9110  -20.4660 C   0  0  0  0  0  0  0  0  0  0  0  0
  -10.5193  -71.6410  -19.2780 C   0  0  0  0  0  0  0  0  0  0  0  0
   -9.3914  -71.9099  -18.5042 C   0  0  0  0  0  0  0  0  0  0  0  0
   -8.1676  -71.4308  -18.9357 C   0  0  0  0  0  0  0  0  0  0  0  0
   -8.0061  -70.7084  -20.0608 N   0  0  0  0  0  0  0  0  0  0  0  0
   -9.1152  -70.4737  -20.8011 C   0  0  0  0  0  0  0  0  0  0  0  0
  1  2  1  0
  2  3  1  0
  3  4  1  0
  4  5  1  6
  4  6  1  0
  6  7  2  0
  6  8  1  0
  8  9  1  6
  8 10  1  0
 10 11  2  0
 11 12  1  0
 12 13  2  0
 13 14  1  0
 14 15  2  0
 15 10  1  0
M  END
>  <SLURM_JOB_NAME>  (219) 
BulkDock.place:Flavi_NS5_RdRp:RdRp_knitwork_thumb_site_2_impure_split4000_batch000

>  <fragmenstein_error>  (219) 
['']

>  <HIPPO Compound ID>  (219) 
6590

>  <alias>  (219) 
None

>  <energy_score>  (219) 
-60.97275

>  <exports>  (219) 
['/opt/xchem-fragalysis-2/maxwin/BulkDock/OUTPUTS/RdRp_knitwork_thumb_site_2_impure_split4000_batch000_211013.sdf']

>  <fragmenstein_outcome>  (219) 
['acceptable']

>  <fragmenstein_mode>  (219) 
['expansion']

>  <HIPPO Pose ID>  (219) 
51857

>  <name>  (219) 
WIKFGDFWKIGWFF-JOYOIKCWSA-N

>  <fragmenstein_runtime>  (219) 
[1.9592554569244385]

>  <csv_name>  (219) 
RdRp_knitwork_thumb_site_2_impure_split4000_batch000.csv

>  <inchikey>  (219) 
WIKFGDFWKIGWFF-JOYOIKCWSA-N

>  <original SMILES>  (219) 
CCC[C@H](C)C(=O)[C@H](O)c1cccnc1

>  <scratch_subdir>  (219) 
['/opt/xchem-fragalysis-2/maxwin/BulkDock/SCRATCH/211013/C6590-P50']

>  <tags>  (219) 
['Fragmenstein placed']

>  <distance_score>  (219) 
0.748602

>  <original ID>  (219) 
WIKFGDFWKIGWFF-JOYOIKCWSA-N

>  <ref_mols>  (219) 
d0174a,d0615a

>  <SLURM_JOB_ID>  (219) 
211013

>  <ref_pdb>  (219) 
d0615a

$$$$
51859
     RDKit          3D

 15 15  0  0  0  0  0  0  0  0999 V2000
  -16.1694  -70.5969  -24.8018 C   0  0  0  0  0  0  0  0  0  0  0  0
  -16.3087  -70.2754  -23.3277 C   0  0  0  0  0  0  0  0  0  0  0  0
  -14.9672  -69.9137  -22.7029 C   0  0  0  0  0  0  0  0  0  0  0  0
  -15.1667  -69.7557  -21.2954 O   0  0  0  0  0  0  0  0  0  0  0  0
  -13.9581  -69.4441  -20.6248 C   0  0  0  0  0  0  0  0  0  0  0  0
  -12.9689  -70.6105  -20.4758 C   0  0  0  0  0  0  0  0  0  0  0  0
  -13.3428  -71.7306  -20.1266 O   0  0  0  0  0  0  0  0  0  0  0  0
  -11.5260  -70.2573  -20.8217 C   0  0  2  0  0  0  0  0  0  0  0  0
  -11.3988  -70.2756  -22.2409 O   0  0  0  0  0  0  0  0  0  0  0  0
  -10.3857  -70.9896  -20.1623 C   0  0  0  0  0  0  0  0  0  0  0  0
  -10.5138  -71.8503  -19.0703 C   0  0  0  0  0  0  0  0  0  0  0  0
   -9.3761  -72.3832  -18.4657 C   0  0  0  0  0  0  0  0  0  0  0  0
   -8.1346  -72.0288  -18.9629 C   0  0  0  0  0  0  0  0  0  0  0  0
   -7.9627  -71.1889  -20.0009 N   0  0  0  0  0  0  0  0  0  0  0  0
   -9.0823  -70.6957  -20.5756 C   0  0  0  0  0  0  0  0  0  0  0  0
  1  2  1  0
  2  3  1  0
  3  4  1  0
  4  5  1  0
  5  6  1  0
  6  7  2  0
  6  8  1  0
  8  9  1  6
  8 10  1  0
 10 11  2  0
 11 12  1  0
 12 13  2  0
 13 14  1  0
 14 15  2  0
 15 10  1  0
M  END
>  <SLURM_JOB_NAME>  (220) 
BulkDock.place:Flavi_NS5_RdRp:RdRp_knitwork_thumb_site_2_impure_split4000_batch000

>  <fragmenstein_error>  (220) 
['']

>  <HIPPO Compound ID>  (220) 
6592

>  <alias>  (220) 
None

>  <energy_score>  (220) 
-33.329301

>  <exports>  (220) 
['/opt/xchem-fragalysis-2/maxwin/BulkDock/OUTPUTS/RdRp_knitwork_thumb_site_2_impure_split4000_batch000_211013.sdf']

>  <fragmenstein_outcome>  (220) 
['acceptable']

>  <fragmenstein_mode>  (220) 
['expansion']

>  <HIPPO Pose ID>  (220) 
51859

>  <name>  (220) 
ZHJAXKLACHAAFO-LLVKDONJSA-N

>  <fragmenstein_runtime>  (220) 
[1.4421262741088867]

>  <csv_name>  (220) 
RdRp_knitwork_thumb_site_2_impure_split4000_batch000.csv

>  <inchikey>  (220) 
ZHJAXKLACHAAFO-LLVKDONJSA-N

>  <original SMILES>  (220) 
CCCOCC(=O)[C@H](O)c1cccnc1

>  <scratch_subdir>  (220) 
['/opt/xchem-fragalysis-2/maxwin/BulkDock/SCRATCH/211013/C6592-P17']

>  <tags>  (220) 
['Fragmenstein placed']

>  <distance_score>  (220) 
0.706038

>  <original ID>  (220) 
ZHJAXKLACHAAFO-LLVKDONJSA-N

>  <ref_mols>  (220) 
d0174a,d0615a

>  <SLURM_JOB_ID>  (220) 
211013

>  <ref_pdb>  (220) 
d0174a

$$$$
51860
     RDKit          3D

 15 15  0  0  0  0  0  0  0  0999 V2000
  -16.0857  -70.5243  -24.9406 C   0  0  0  0  0  0  0  0  0  0  0  0
  -16.2820  -70.2763  -23.4577 C   0  0  0  0  0  0  0  0  0  0  0  0
  -14.9570  -70.0124  -22.7540 C   0  0  0  0  0  0  0  0  0  0  0  0
  -15.2077  -69.9895  -21.3471 O   0  0  0  0  0  0  0  0  0  0  0  0
  -14.0326  -69.7547  -20.5943 C   0  0  0  0  0  0  0  0  0  0  0  0
  -12.9332  -70.8264  -20.6861 C   0  0  0  0  0  0  0  0  0  0  0  0
  -13.1785  -72.0336  -20.6768 O   0  0  0  0  0  0  0  0  0  0  0  0
  -11.5273  -70.2714  -20.8701 C   0  0  2  0  0  0  0  0  0  0  0  0
  -11.3043  -70.1391  -22.2729 O   0  0  0  0  0  0  0  0  0  0  0  0
  -10.3734  -70.9680  -20.1966 C   0  0  0  0  0  0  0  0  0  0  0  0
  -10.5156  -71.8374  -19.1116 C   0  0  0  0  0  0  0  0  0  0  0  0
   -9.3854  -72.3471  -18.4754 C   0  0  0  0  0  0  0  0  0  0  0  0
   -8.1384  -71.9590  -18.9327 C   0  0  0  0  0  0  0  0  0  0  0  0
   -7.9547  -71.1053  -19.9580 N   0  0  0  0  0  0  0  0  0  0  0  0
   -9.0677  -70.6348  -20.5653 C   0  0  0  0  0  0  0  0  0  0  0  0
  1  2  1  0
  2  3  1  0
  3  4  1  0
  4  5  1  0
  5  6  1  0
  6  7  2  0
  6  8  1  0
  8  9  1  6
  8 10  1  0
 10 11  2  0
 11 12  1  0
 12 13  2  0
 13 14  1  0
 14 15  2  0
 15 10  1  0
M  END
>  <SLURM_JOB_NAME>  (221) 
BulkDock.place:Flavi_NS5_RdRp:RdRp_knitwork_thumb_site_2_impure_split4000_batch000

>  <fragmenstein_error>  (221) 
['']

>  <HIPPO Compound ID>  (221) 
6592

>  <alias>  (221) 
None

>  <energy_score>  (221) 
-33.692591

>  <exports>  (221) 
['/opt/xchem-fragalysis-2/maxwin/BulkDock/OUTPUTS/RdRp_knitwork_thumb_site_2_impure_split4000_batch000_211013.sdf']

>  <fragmenstein_outcome>  (221) 
['acceptable']

>  <fragmenstein_mode>  (221) 
['expansion']

>  <HIPPO Pose ID>  (221) 
51860

>  <name>  (221) 
ZHJAXKLACHAAFO-LLVKDONJSA-N

>  <fragmenstein_runtime>  (221) 
[1.6140797138214111]

>  <csv_name>  (221) 
RdRp_knitwork_thumb_site_2_impure_split4000_batch000.csv

>  <inchikey>  (221) 
ZHJAXKLACHAAFO-LLVKDONJSA-N

>  <original SMILES>  (221) 
CCCOCC(=O)[C@H](O)c1cccnc1

>  <scratch_subdir>  (221) 
['/opt/xchem-fragalysis-2/maxwin/BulkDock/SCRATCH/211013/C6592-P50']

>  <tags>  (221) 
['Fragmenstein placed']

>  <distance_score>  (221) 
0.647972

>  <original ID>  (221) 
ZHJAXKLACHAAFO-LLVKDONJSA-N

>  <ref_mols>  (221) 
d0174a,d0615a

>  <SLURM_JOB_ID>  (221) 
211013

>  <ref_pdb>  (221) 
d0615a

$$$$
51866
     RDKit          3D

 13 13  0  0  0  0  0  0  0  0999 V2000
  -14.4567  -70.0911  -23.1658 C   0  0  0  0  0  0  0  0  0  0  0  0
  -14.9956  -70.2368  -21.7519 C   0  0  0  0  0  0  0  0  0  0  0  0
  -14.1184  -69.5622  -20.7068 C   0  0  0  0  0  0  0  0  0  0  0  0
  -12.9592  -70.3327  -20.2679 N   0  0  0  0  0  0  0  0  0  0  0  0
  -13.2355  -71.1316  -19.1463 O   0  0  0  0  0  0  0  0  0  0  0  0
  -11.7194  -70.2878  -20.8824 C   0  0  0  0  0  0  0  0  0  0  0  0
  -11.5699  -69.7103  -21.9612 O   0  0  0  0  0  0  0  0  0  0  0  0
  -10.5541  -71.0327  -20.2888 C   0  0  0  0  0  0  0  0  0  0  0  0
  -10.3901  -71.1375  -18.9076 C   0  0  0  0  0  0  0  0  0  0  0  0
   -9.2045  -71.6687  -18.4027 C   0  0  0  0  0  0  0  0  0  0  0  0
   -8.1984  -72.0391  -19.2836 C   0  0  0  0  0  0  0  0  0  0  0  0
   -8.4261  -71.8778  -20.6395 C   0  0  0  0  0  0  0  0  0  0  0  0
   -9.5755  -71.3933  -21.1579 N   0  0  0  0  0  0  0  0  0  0  0  0
  1  2  1  0
  2  3  1  0
  3  4  1  0
  4  5  1  0
  4  6  1  0
  6  7  2  0
  6  8  1  0
  8  9  2  0
  9 10  1  0
 10 11  2  0
 11 12  1  0
 12 13  2  0
 13  8  1  0
M  END
>  <SLURM_JOB_NAME>  (222) 
BulkDock.place:Flavi_NS5_RdRp:RdRp_knitwork_thumb_site_2_impure_split4000_batch000

>  <fragmenstein_error>  (222) 
['']

>  <HIPPO Compound ID>  (222) 
6630

>  <alias>  (222) 
None

>  <energy_score>  (222) 
-48.380515

>  <exports>  (222) 
['/opt/xchem-fragalysis-2/maxwin/BulkDock/OUTPUTS/RdRp_knitwork_thumb_site_2_impure_split4000_batch000_211013.sdf']

>  <fragmenstein_outcome>  (222) 
['acceptable']

>  <fragmenstein_mode>  (222) 
['expansion']

>  <HIPPO Pose ID>  (222) 
51866

>  <name>  (222) 
KNQXNDJGVDPOSN-UHFFFAOYSA-N

>  <fragmenstein_runtime>  (222) 
[1.6058528423309326]

>  <csv_name>  (222) 
RdRp_knitwork_thumb_site_2_impure_split4000_batch000.csv

>  <inchikey>  (222) 
KNQXNDJGVDPOSN-UHFFFAOYSA-N

>  <original SMILES>  (222) 
CCCN(O)C(=O)c1ccccn1

>  <scratch_subdir>  (222) 
['/opt/xchem-fragalysis-2/maxwin/BulkDock/SCRATCH/211013/C6630-P17']

>  <tags>  (222) 
['Fragmenstein placed']

>  <distance_score>  (222) 
0.894967

>  <original ID>  (222) 
KNQXNDJGVDPOSN-UHFFFAOYSA-N

>  <ref_mols>  (222) 
d0174a,d0615a

>  <SLURM_JOB_ID>  (222) 
211013

>  <ref_pdb>  (222) 
d0174a

$$$$
51867
     RDKit          3D

 13 13  0  0  0  0  0  0  0  0999 V2000
  -14.5128  -70.1235  -23.0919 C   0  0  0  0  0  0  0  0  0  0  0  0
  -15.0058  -70.1386  -21.6538 C   0  0  0  0  0  0  0  0  0  0  0  0
  -14.0746  -69.4065  -20.6960 C   0  0  0  0  0  0  0  0  0  0  0  0
  -12.9224  -70.1728  -20.2286 N   0  0  0  0  0  0  0  0  0  0  0  0
  -13.1735  -70.8416  -19.0207 O   0  0  0  0  0  0  0  0  0  0  0  0
  -11.7086  -70.2437  -20.8895 C   0  0  0  0  0  0  0  0  0  0  0  0
  -11.5699  -69.7542  -22.0139 O   0  0  0  0  0  0  0  0  0  0  0  0
  -10.5428  -70.9715  -20.2670 C   0  0  0  0  0  0  0  0  0  0  0  0
  -10.3573  -71.0361  -18.8867 C   0  0  0  0  0  0  0  0  0  0  0  0
   -9.1761  -71.5785  -18.3812 C   0  0  0  0  0  0  0  0  0  0  0  0
   -8.1898  -71.9978  -19.2618 C   0  0  0  0  0  0  0  0  0  0  0  0
   -8.4325  -71.8715  -20.6181 C   0  0  0  0  0  0  0  0  0  0  0  0
   -9.5790  -71.3799  -21.1351 N   0  0  0  0  0  0  0  0  0  0  0  0
  1  2  1  0
  2  3  1  0
  3  4  1  0
  4  5  1  0
  4  6  1  0
  6  7  2  0
  6  8  1  0
  8  9  2  0
  9 10  1  0
 10 11  2  0
 11 12  1  0
 12 13  2  0
 13  8  1  0
M  END
>  <SLURM_JOB_NAME>  (223) 
BulkDock.place:Flavi_NS5_RdRp:RdRp_knitwork_thumb_site_2_impure_split4000_batch000

>  <fragmenstein_error>  (223) 
['']

>  <HIPPO Compound ID>  (223) 
6630

>  <alias>  (223) 
None

>  <energy_score>  (223) 
-48.271871

>  <exports>  (223) 
['/opt/xchem-fragalysis-2/maxwin/BulkDock/OUTPUTS/RdRp_knitwork_thumb_site_2_impure_split4000_batch000_211013.sdf']

>  <fragmenstein_outcome>  (223) 
['acceptable']

>  <fragmenstein_mode>  (223) 
['expansion']

>  <HIPPO Pose ID>  (223) 
51867

>  <name>  (223) 
KNQXNDJGVDPOSN-UHFFFAOYSA-N

>  <fragmenstein_runtime>  (223) 
[1.5077931880950928]

>  <csv_name>  (223) 
RdRp_knitwork_thumb_site_2_impure_split4000_batch000.csv

>  <inchikey>  (223) 
KNQXNDJGVDPOSN-UHFFFAOYSA-N

>  <original SMILES>  (223) 
CCCN(O)C(=O)c1ccccn1

>  <scratch_subdir>  (223) 
['/opt/xchem-fragalysis-2/maxwin/BulkDock/SCRATCH/211013/C6630-P50']

>  <tags>  (223) 
['Fragmenstein placed']

>  <distance_score>  (223) 
0.908251

>  <original ID>  (223) 
KNQXNDJGVDPOSN-UHFFFAOYSA-N

>  <ref_mols>  (223) 
d0174a,d0615a

>  <SLURM_JOB_ID>  (223) 
211013

>  <ref_pdb>  (223) 
d0615a

$$$$
51868
     RDKit          3D

 15 15  0  0  0  0  0  0  0  0999 V2000
  -15.3104  -70.2398  -24.3304 C   0  0  0  0  0  0  0  0  0  0  0  0
  -14.2870  -69.9670  -23.2342 C   0  0  0  0  0  0  0  0  0  0  0  0
  -14.8991  -69.4707  -21.9179 C   0  0  1  0  0  0  0  0  0  0  0  0
  -16.0496  -70.3528  -21.4453 C   0  0  0  0  0  0  0  0  0  0  0  0
  -13.8520  -69.2103  -20.8074 C   0  0  0  0  0  0  0  0  0  0  0  0
  -12.9144  -70.3286  -20.3152 C   0  0  1  0  0  0  0  0  0  0  0  0
  -13.5746  -71.5698  -20.1735 O   0  0  0  0  0  0  0  0  0  0  0  0
  -11.5815  -70.4198  -21.0853 C   0  0  0  0  0  0  0  0  0  0  0  0
  -11.4650  -70.0937  -22.2638 O   0  0  0  0  0  0  0  0  0  0  0  0
  -10.3815  -70.8965  -20.3526 C   0  0  0  0  0  0  0  0  0  0  0  0
  -10.4508  -71.6820  -19.1996 C   0  0  0  0  0  0  0  0  0  0  0  0
   -9.2730  -72.0618  -18.5573 C   0  0  0  0  0  0  0  0  0  0  0  0
   -8.0656  -71.6411  -19.0909 C   0  0  0  0  0  0  0  0  0  0  0  0
   -7.9651  -70.8811  -20.2013 N   0  0  0  0  0  0  0  0  0  0  0  0
   -9.1229  -70.5344  -20.8173 C   0  0  0  0  0  0  0  0  0  0  0  0
  1  2  1  0
  2  3  1  0
  3  4  1  1
  3  5  1  0
  5  6  1  0
  6  7  1  6
  6  8  1  0
  8  9  2  0
  8 10  1  0
 10 11  2  0
 11 12  1  0
 12 13  2  0
 13 14  1  0
 14 15  2  0
 15 10  1  0
M  END
>  <SLURM_JOB_NAME>  (224) 
BulkDock.place:Flavi_NS5_RdRp:RdRp_knitwork_thumb_site_2_impure_split4000_batch000

>  <fragmenstein_error>  (224) 
['']

>  <HIPPO Compound ID>  (224) 
6633

>  <alias>  (224) 
None

>  <energy_score>  (224) 
-36.542722

>  <exports>  (224) 
['/opt/xchem-fragalysis-2/maxwin/BulkDock/OUTPUTS/RdRp_knitwork_thumb_site_2_impure_split4000_batch000_211013.sdf']

>  <fragmenstein_outcome>  (224) 
['acceptable']

>  <fragmenstein_mode>  (224) 
['expansion']

>  <HIPPO Pose ID>  (224) 
51868

>  <name>  (224) 
ZEZDDOLCQLSDLO-MWLCHTKSSA-N

>  <fragmenstein_runtime>  (224) 
[1.7930755615234375]

>  <csv_name>  (224) 
RdRp_knitwork_thumb_site_2_impure_split4000_batch000.csv

>  <inchikey>  (224) 
ZEZDDOLCQLSDLO-MWLCHTKSSA-N

>  <original SMILES>  (224) 
CC[C@@H](C)C[C@@H](O)C(=O)c1cccnc1

>  <scratch_subdir>  (224) 
['/opt/xchem-fragalysis-2/maxwin/BulkDock/SCRATCH/211013/C6633-P17']

>  <tags>  (224) 
['Fragmenstein placed']

>  <distance_score>  (224) 
0.614833

>  <original ID>  (224) 
ZEZDDOLCQLSDLO-MWLCHTKSSA-N

>  <ref_mols>  (224) 
d0174a,d0615a

>  <SLURM_JOB_ID>  (224) 
211013

>  <ref_pdb>  (224) 
d0174a

$$$$
51870
     RDKit          3D

 15 15  0  0  0  0  0  0  0  0999 V2000
  -15.3149  -70.1450  -24.2953 C   0  0  0  0  0  0  0  0  0  0  0  0
  -14.2698  -69.8747  -23.2201 C   0  0  0  0  0  0  0  0  0  0  0  0
  -14.8537  -69.4459  -21.8657 C   0  0  1  0  0  0  0  0  0  0  0  0
  -16.0263  -70.3117  -21.4200 C   0  0  0  0  0  0  0  0  0  0  0  0
  -13.7917  -69.2947  -20.7513 C   0  0  0  0  0  0  0  0  0  0  0  0
  -12.8714  -70.4678  -20.3627 C   0  0  1  0  0  0  0  0  0  0  0  0
  -13.4873  -71.7372  -20.4515 O   0  0  0  0  0  0  0  0  0  0  0  0
  -11.5155  -70.4458  -21.0906 C   0  0  0  0  0  0  0  0  0  0  0  0
  -11.3884  -70.0677  -22.2534 O   0  0  0  0  0  0  0  0  0  0  0  0
  -10.3122  -70.8976  -20.3474 C   0  0  0  0  0  0  0  0  0  0  0  0
  -10.3752  -71.7234  -19.2223 C   0  0  0  0  0  0  0  0  0  0  0  0
   -9.1979  -72.0802  -18.5667 C   0  0  0  0  0  0  0  0  0  0  0  0
   -7.9963  -71.6012  -19.0625 C   0  0  0  0  0  0  0  0  0  0  0  0
   -7.9007  -70.8053  -20.1480 N   0  0  0  0  0  0  0  0  0  0  0  0
   -9.0584  -70.4780  -20.7754 C   0  0  0  0  0  0  0  0  0  0  0  0
  1  2  1  0
  2  3  1  0
  3  4  1  1
  3  5  1  0
  5  6  1  0
  6  7  1  6
  6  8  1  0
  8  9  2  0
  8 10  1  0
 10 11  2  0
 11 12  1  0
 12 13  2  0
 13 14  1  0
 14 15  2  0
 15 10  1  0
M  END
>  <SLURM_JOB_NAME>  (225) 
BulkDock.place:Flavi_NS5_RdRp:RdRp_knitwork_thumb_site_2_impure_split4000_batch000

>  <fragmenstein_error>  (225) 
['']

>  <HIPPO Compound ID>  (225) 
6633

>  <alias>  (225) 
None

>  <energy_score>  (225) 
-36.205228

>  <exports>  (225) 
['/opt/xchem-fragalysis-2/maxwin/BulkDock/OUTPUTS/RdRp_knitwork_thumb_site_2_impure_split4000_batch000_211013.sdf']

>  <fragmenstein_outcome>  (225) 
['acceptable']

>  <fragmenstein_mode>  (225) 
['expansion']

>  <HIPPO Pose ID>  (225) 
51870

>  <name>  (225) 
ZEZDDOLCQLSDLO-MWLCHTKSSA-N

>  <fragmenstein_runtime>  (225) 
[1.8803608417510986]

>  <csv_name>  (225) 
RdRp_knitwork_thumb_site_2_impure_split4000_batch000.csv

>  <inchikey>  (225) 
ZEZDDOLCQLSDLO-MWLCHTKSSA-N

>  <original SMILES>  (225) 
CC[C@@H](C)C[C@@H](O)C(=O)c1cccnc1

>  <scratch_subdir>  (225) 
['/opt/xchem-fragalysis-2/maxwin/BulkDock/SCRATCH/211013/C6633-P50']

>  <tags>  (225) 
['Fragmenstein placed']

>  <distance_score>  (225) 
0.581578

>  <original ID>  (225) 
ZEZDDOLCQLSDLO-MWLCHTKSSA-N

>  <ref_mols>  (225) 
d0174a,d0615a

>  <SLURM_JOB_ID>  (225) 
211013

>  <ref_pdb>  (225) 
d0615a

$$$$
51872
     RDKit          3D

 19 19  0  0  0  0  0  0  0  0999 V2000
  -16.9788  -70.2765  -25.9613 C   0  0  0  0  0  0  0  0  0  0  0  0
  -15.7975  -70.6609  -25.0665 C   0  0  0  0  0  0  0  0  0  0  0  0
  -14.4886  -70.4483  -25.8274 C   0  0  0  0  0  0  0  0  0  0  0  0
  -15.9311  -69.9652  -23.6981 C   0  0  0  0  0  0  0  0  0  0  0  0
  -14.6606  -69.9162  -22.8234 C   0  0  1  0  0  0  0  0  0  0  0  0
  -13.9033  -68.6257  -23.0951 C   0  0  0  0  0  0  0  0  0  0  0  0
  -15.0546  -70.0754  -21.3548 C   0  0  0  0  0  0  0  0  0  0  0  0
  -13.8257  -69.7332  -20.1036 S   0  0  0  0  0  0  0  0  0  0  0  0
  -13.8725  -68.3130  -19.8451 O   0  0  0  0  0  0  0  0  0  0  0  0
  -14.0063  -70.6568  -19.0043 O   0  0  0  0  0  0  0  0  0  0  0  0
  -12.3459  -69.9678  -20.7760 N   0  0  0  0  0  0  0  0  0  0  0  0
  -11.6840  -71.2402  -21.0071 C   0  0  1  0  0  0  0  0  0  0  0  0
  -11.2833  -71.3004  -22.4873 C   0  0  0  0  0  0  0  0  0  0  0  0
  -10.4728  -71.3463  -20.0969 C   0  0  0  0  0  0  0  0  0  0  0  0
  -10.6250  -71.9082  -18.8258 C   0  0  0  0  0  0  0  0  0  0  0  0
   -9.5232  -71.9794  -17.9883 C   0  0  0  0  0  0  0  0  0  0  0  0
   -8.2965  -71.5239  -18.3160 N   0  0  0  0  0  0  0  0  0  0  0  0
   -8.1638  -70.9729  -19.5406 C   0  0  0  0  0  0  0  0  0  0  0  0
   -9.2067  -70.8514  -20.4464 C   0  0  0  0  0  0  0  0  0  0  0  0
  1  2  1  0
  2  3  1  0
  2  4  1  0
  4  5  1  0
  5  6  1  1
  5  7  1  0
  7  8  1  0
  8  9  2  0
  8 10  2  0
  8 11  1  0
 11 12  1  0
 12 13  1  6
 12 14  1  0
 14 15  2  0
 15 16  1  0
 16 17  2  0
 17 18  1  0
 18 19  2  0
 19 14  1  0
M  END
>  <SLURM_JOB_NAME>  (226) 
BulkDock.place:Flavi_NS5_RdRp:RdRp_knitwork_thumb_site_2_impure_split4000_batch000

>  <fragmenstein_error>  (226) 
['']

>  <HIPPO Compound ID>  (226) 
6634

>  <alias>  (226) 
None

>  <energy_score>  (226) 
-46.360435

>  <exports>  (226) 
['/opt/xchem-fragalysis-2/maxwin/BulkDock/OUTPUTS/RdRp_knitwork_thumb_site_2_impure_split4000_batch000_211013.sdf']

>  <fragmenstein_outcome>  (226) 
['acceptable']

>  <fragmenstein_mode>  (226) 
['expansion']

>  <HIPPO Pose ID>  (226) 
51872

>  <name>  (226) 
DNBGHHYGVGYANP-OLZOCXBDSA-N

>  <fragmenstein_runtime>  (226) 
[7.212163209915161]

>  <csv_name>  (226) 
RdRp_knitwork_thumb_site_2_impure_split4000_batch000.csv

>  <inchikey>  (226) 
DNBGHHYGVGYANP-OLZOCXBDSA-N

>  <original SMILES>  (226) 
CC(C)C[C@@H](C)CS(=O)(=O)N[C@@H](C)c1ccncc1

>  <scratch_subdir>  (226) 
['/opt/xchem-fragalysis-2/maxwin/BulkDock/SCRATCH/211013/C6634-P17']

>  <tags>  (226) 
['Fragmenstein placed']

>  <distance_score>  (226) 
0.762985

>  <original ID>  (226) 
DNBGHHYGVGYANP-OLZOCXBDSA-N

>  <ref_mols>  (226) 
d0174a,d0615a

>  <SLURM_JOB_ID>  (226) 
211013

>  <ref_pdb>  (226) 
d0174a

$$$$
51874
     RDKit          3D

 19 19  0  0  0  0  0  0  0  0999 V2000
  -15.6950  -70.7735  -25.7501 C   0  0  0  0  0  0  0  0  0  0  0  0
  -14.7045  -70.4961  -24.6142 C   0  0  0  0  0  0  0  0  0  0  0  0
  -13.4378  -69.8908  -25.2246 C   0  0  0  0  0  0  0  0  0  0  0  0
  -15.4046  -69.6009  -23.5743 C   0  0  0  0  0  0  0  0  0  0  0  0
  -14.5973  -69.2162  -22.3251 C   0  0  1  0  0  0  0  0  0  0  0  0
  -15.1390  -67.9275  -21.7042 C   0  0  0  0  0  0  0  0  0  0  0  0
  -14.7082  -70.3219  -21.2909 C   0  0  0  0  0  0  0  0  0  0  0  0
  -13.4892  -70.2044  -19.9825 S   0  0  0  0  0  0  0  0  0  0  0  0
  -12.6514  -69.0430  -20.1385 O   0  0  0  0  0  0  0  0  0  0  0  0
  -14.1696  -70.4779  -18.7299 O   0  0  0  0  0  0  0  0  0  0  0  0
  -12.6014  -71.5752  -20.2919 N   0  0  0  0  0  0  0  0  0  0  0  0
  -11.3378  -71.5993  -21.0468 C   0  0  1  0  0  0  0  0  0  0  0  0
  -11.4199  -70.8362  -22.3620 C   0  0  0  0  0  0  0  0  0  0  0  0
  -10.1205  -71.3454  -20.1801 C   0  0  0  0  0  0  0  0  0  0  0  0
  -10.0445  -71.9315  -18.9069 C   0  0  0  0  0  0  0  0  0  0  0  0
   -8.8851  -71.7961  -18.1631 C   0  0  0  0  0  0  0  0  0  0  0  0
   -7.7973  -71.1318  -18.5917 N   0  0  0  0  0  0  0  0  0  0  0  0
   -7.8791  -70.5681  -19.8162 C   0  0  0  0  0  0  0  0  0  0  0  0
   -9.0001  -70.6390  -20.6308 C   0  0  0  0  0  0  0  0  0  0  0  0
  1  2  1  0
  2  3  1  0
  2  4  1  0
  4  5  1  0
  5  6  1  1
  5  7  1  0
  7  8  1  0
  8  9  2  0
  8 10  2  0
  8 11  1  0
 11 12  1  0
 12 13  1  6
 12 14  1  0
 14 15  2  0
 15 16  1  0
 16 17  2  0
 17 18  1  0
 18 19  2  0
 19 14  1  0
M  END
>  <SLURM_JOB_NAME>  (227) 
BulkDock.place:Flavi_NS5_RdRp:RdRp_knitwork_thumb_site_2_impure_split4000_batch000

>  <fragmenstein_error>  (227) 
['']

>  <HIPPO Compound ID>  (227) 
6634

>  <alias>  (227) 
None

>  <energy_score>  (227) 
-45.410275

>  <exports>  (227) 
['/opt/xchem-fragalysis-2/maxwin/BulkDock/OUTPUTS/RdRp_knitwork_thumb_site_2_impure_split4000_batch000_211013.sdf']

>  <fragmenstein_outcome>  (227) 
['acceptable']

>  <fragmenstein_mode>  (227) 
['expansion']

>  <HIPPO Pose ID>  (227) 
51874

>  <name>  (227) 
DNBGHHYGVGYANP-OLZOCXBDSA-N

>  <fragmenstein_runtime>  (227) 
[7.358105659484863]

>  <csv_name>  (227) 
RdRp_knitwork_thumb_site_2_impure_split4000_batch000.csv

>  <inchikey>  (227) 
DNBGHHYGVGYANP-OLZOCXBDSA-N

>  <original SMILES>  (227) 
CC(C)C[C@@H](C)CS(=O)(=O)N[C@@H](C)c1ccncc1

>  <scratch_subdir>  (227) 
['/opt/xchem-fragalysis-2/maxwin/BulkDock/SCRATCH/211013/C6634-P50']

>  <tags>  (227) 
['Fragmenstein placed']

>  <distance_score>  (227) 
0.812185

>  <original ID>  (227) 
DNBGHHYGVGYANP-OLZOCXBDSA-N

>  <ref_mols>  (227) 
d0174a,d0615a

>  <SLURM_JOB_ID>  (227) 
211013

>  <ref_pdb>  (227) 
d0615a

$$$$
51875
     RDKit          3D

 14 14  0  0  0  0  0  0  0  0999 V2000
  -14.3226  -69.2733  -22.8740 C   0  0  0  0  0  0  0  0  0  0  0  0
  -14.9005  -69.3045  -21.4728 C   0  0  0  0  0  0  0  0  0  0  0  0
  -13.8889  -69.5359  -20.3443 C   0  0  0  0  0  0  0  0  0  0  0  0
  -13.0530  -70.8378  -20.3800 C   0  0  1  0  0  0  0  0  0  0  0  0
  -13.8927  -71.8760  -20.9172 O   0  0  0  0  0  0  0  0  0  0  0  0
  -13.5409  -73.1926  -20.5098 C   0  0  0  0  0  0  0  0  0  0  0  0
  -11.7189  -70.6575  -21.1743 C   0  0  2  0  0  0  0  0  0  0  0  0
  -11.7284  -71.4066  -22.3932 O   0  0  0  0  0  0  0  0  0  0  0  0
  -10.4336  -70.9618  -20.4110 C   0  0  0  0  0  0  0  0  0  0  0  0
  -10.3416  -71.9529  -19.4332 C   0  0  0  0  0  0  0  0  0  0  0  0
   -9.1212  -72.1860  -18.7988 C   0  0  0  0  0  0  0  0  0  0  0  0
   -8.0071  -71.4498  -19.1716 C   0  0  0  0  0  0  0  0  0  0  0  0
   -8.1651  -70.4972  -20.1594 C   0  0  0  0  0  0  0  0  0  0  0  0
   -9.3447  -70.2269  -20.7610 N   0  0  0  0  0  0  0  0  0  0  0  0
  1  2  1  0
  2  3  1  0
  4  3  1  6
  4  5  1  0
  5  6  1  0
  4  7  1  0
  7  8  1  6
  7  9  1  0
  9 10  2  0
 10 11  1  0
 11 12  2  0
 12 13  1  0
 13 14  2  0
 14  9  1  0
M  END
>  <SLURM_JOB_NAME>  (228) 
BulkDock.place:Flavi_NS5_RdRp:RdRp_knitwork_thumb_site_2_impure_split4000_batch000

>  <fragmenstein_error>  (228) 
['']

>  <HIPPO Compound ID>  (228) 
6647

>  <alias>  (228) 
None

>  <energy_score>  (228) 
-14.672967

>  <exports>  (228) 
['/opt/xchem-fragalysis-2/maxwin/BulkDock/OUTPUTS/RdRp_knitwork_thumb_site_2_impure_split4000_batch000_211013.sdf']

>  <fragmenstein_outcome>  (228) 
['acceptable']

>  <fragmenstein_mode>  (228) 
['expansion']

>  <HIPPO Pose ID>  (228) 
51875

>  <name>  (228) 
JHDOGRQBCUUYFR-GHMZBOCLSA-N

>  <fragmenstein_runtime>  (228) 
[1.334975242614746]

>  <csv_name>  (228) 
RdRp_knitwork_thumb_site_2_impure_split4000_batch000.csv

>  <inchikey>  (228) 
JHDOGRQBCUUYFR-GHMZBOCLSA-N

>  <original SMILES>  (228) 
CCC[C@@H](OC)[C@H](O)c1ccccn1

>  <scratch_subdir>  (228) 
['/opt/xchem-fragalysis-2/maxwin/BulkDock/SCRATCH/211013/C6647-P17']

>  <tags>  (228) 
['Fragmenstein placed']

>  <distance_score>  (228) 
0.631398

>  <original ID>  (228) 
JHDOGRQBCUUYFR-GHMZBOCLSA-N

>  <ref_mols>  (228) 
d0174a,d0615a

>  <SLURM_JOB_ID>  (228) 
211013

>  <ref_pdb>  (228) 
d0174a

$$$$
51876
     RDKit          3D

 14 14  0  0  0  0  0  0  0  0999 V2000
  -14.4599  -69.3052  -22.8311 C   0  0  0  0  0  0  0  0  0  0  0  0
  -15.0631  -69.4981  -21.4532 C   0  0  0  0  0  0  0  0  0  0  0  0
  -14.0545  -69.7214  -20.3211 C   0  0  0  0  0  0  0  0  0  0  0  0
  -13.1116  -70.9461  -20.4207 C   0  0  1  0  0  0  0  0  0  0  0  0
  -13.8148  -71.9978  -21.1069 O   0  0  0  0  0  0  0  0  0  0  0  0
  -13.3813  -73.3083  -20.7702 C   0  0  0  0  0  0  0  0  0  0  0  0
  -11.7577  -70.5912  -21.1161 C   0  0  2  0  0  0  0  0  0  0  0  0
  -11.6832  -71.1578  -22.4303 O   0  0  0  0  0  0  0  0  0  0  0  0
  -10.4729  -70.9204  -20.3604 C   0  0  0  0  0  0  0  0  0  0  0  0
  -10.3817  -71.9132  -19.3849 C   0  0  0  0  0  0  0  0  0  0  0  0
   -9.1566  -72.1614  -18.7636 C   0  0  0  0  0  0  0  0  0  0  0  0
   -8.0376  -71.4366  -19.1442 C   0  0  0  0  0  0  0  0  0  0  0  0
   -8.1952  -70.4773  -20.1249 C   0  0  0  0  0  0  0  0  0  0  0  0
   -9.3779  -70.1930  -20.7122 N   0  0  0  0  0  0  0  0  0  0  0  0
  1  2  1  0
  2  3  1  0
  4  3  1  6
  4  5  1  0
  5  6  1  0
  4  7  1  0
  7  8  1  6
  7  9  1  0
  9 10  2  0
 10 11  1  0
 11 12  2  0
 12 13  1  0
 13 14  2  0
 14  9  1  0
M  END
>  <SLURM_JOB_NAME>  (229) 
BulkDock.place:Flavi_NS5_RdRp:RdRp_knitwork_thumb_site_2_impure_split4000_batch000

>  <fragmenstein_error>  (229) 
['']

>  <HIPPO Compound ID>  (229) 
6647

>  <alias>  (229) 
None

>  <energy_score>  (229) 
-13.576996

>  <exports>  (229) 
['/opt/xchem-fragalysis-2/maxwin/BulkDock/OUTPUTS/RdRp_knitwork_thumb_site_2_impure_split4000_batch000_211013.sdf']

>  <fragmenstein_outcome>  (229) 
['acceptable']

>  <fragmenstein_mode>  (229) 
['expansion']

>  <HIPPO Pose ID>  (229) 
51876

>  <name>  (229) 
JHDOGRQBCUUYFR-GHMZBOCLSA-N

>  <fragmenstein_runtime>  (229) 
[1.3624725341796875]

>  <csv_name>  (229) 
RdRp_knitwork_thumb_site_2_impure_split4000_batch000.csv

>  <inchikey>  (229) 
JHDOGRQBCUUYFR-GHMZBOCLSA-N

>  <original SMILES>  (229) 
CCC[C@@H](OC)[C@H](O)c1ccccn1

>  <scratch_subdir>  (229) 
['/opt/xchem-fragalysis-2/maxwin/BulkDock/SCRATCH/211013/C6647-P50']

>  <tags>  (229) 
['Fragmenstein placed']

>  <distance_score>  (229) 
0.599303

>  <original ID>  (229) 
JHDOGRQBCUUYFR-GHMZBOCLSA-N

>  <ref_mols>  (229) 
d0174a,d0615a

>  <SLURM_JOB_ID>  (229) 
211013

>  <ref_pdb>  (229) 
d0615a

$$$$
51877
     RDKit          3D

 15 15  0  0  0  0  0  0  0  0999 V2000
  -13.1187  -72.1526  -20.8034 C   0  0  0  0  0  0  0  0  0  0  0  0
  -12.8378  -70.8348  -20.8051 C   0  0  0  0  0  0  0  0  0  0  0  0
  -13.9134  -69.7629  -20.8253 C   0  0  0  0  0  0  0  0  0  0  0  0
  -15.0905  -70.2439  -21.4646 O   0  0  0  0  0  0  0  0  0  0  0  0
  -15.3164  -69.7230  -22.7810 C   0  0  0  0  0  0  0  0  0  0  0  0
  -14.2064  -70.0570  -23.7728 C   0  0  0  0  0  0  0  0  0  0  0  0
  -16.6266  -70.3434  -23.2621 C   0  0  0  0  0  0  0  0  0  0  0  0
  -11.4441  -70.2598  -20.8629 C   0  0  2  0  0  0  0  0  0  0  0  0
  -11.1481  -70.0520  -22.2427 O   0  0  0  0  0  0  0  0  0  0  0  0
  -10.3016  -70.9555  -20.1630 C   0  0  0  0  0  0  0  0  0  0  0  0
  -10.4515  -71.6038  -18.9307 C   0  0  0  0  0  0  0  0  0  0  0  0
   -9.3407  -72.1342  -18.2789 C   0  0  0  0  0  0  0  0  0  0  0  0
   -8.0977  -71.9749  -18.8649 C   0  0  0  0  0  0  0  0  0  0  0  0
   -7.9004  -71.3263  -20.0286 N   0  0  0  0  0  0  0  0  0  0  0  0
   -8.9987  -70.8322  -20.6467 C   0  0  0  0  0  0  0  0  0  0  0  0
  1  2  2  0
  2  3  1  0
  3  4  1  0
  4  5  1  0
  5  6  1  0
  5  7  1  0
  2  8  1  0
  8  9  1  6
  8 10  1  0
 10 11  2  0
 11 12  1  0
 12 13  2  0
 13 14  1  0
 14 15  2  0
 15 10  1  0
M  END
>  <SLURM_JOB_NAME>  (230) 
BulkDock.place:Flavi_NS5_RdRp:RdRp_knitwork_thumb_site_2_impure_split4000_batch000

>  <fragmenstein_error>  (230) 
['']

>  <HIPPO Compound ID>  (230) 
6652

>  <alias>  (230) 
None

>  <energy_score>  (230) 
-47.662984

>  <exports>  (230) 
['/opt/xchem-fragalysis-2/maxwin/BulkDock/OUTPUTS/RdRp_knitwork_thumb_site_2_impure_split4000_batch000_211013.sdf']

>  <fragmenstein_outcome>  (230) 
['acceptable']

>  <fragmenstein_mode>  (230) 
['expansion']

>  <HIPPO Pose ID>  (230) 
51877

>  <name>  (230) 
IGLGACDIMWDVTG-LBPRGKRZSA-N

>  <fragmenstein_runtime>  (230) 
[1.774665117263794]

>  <csv_name>  (230) 
RdRp_knitwork_thumb_site_2_impure_split4000_batch000.csv

>  <inchikey>  (230) 
IGLGACDIMWDVTG-LBPRGKRZSA-N

>  <original SMILES>  (230) 
C=C(COC(C)C)[C@H](O)c1cccnc1

>  <scratch_subdir>  (230) 
['/opt/xchem-fragalysis-2/maxwin/BulkDock/SCRATCH/211013/C6652-P17']

>  <tags>  (230) 
['Fragmenstein placed']

>  <distance_score>  (230) 
0.698229

>  <original ID>  (230) 
IGLGACDIMWDVTG-LBPRGKRZSA-N

>  <ref_mols>  (230) 
d0174a,d0615a

>  <SLURM_JOB_ID>  (230) 
211013

>  <ref_pdb>  (230) 
d0174a

$$$$
51878
     RDKit          3D

 15 15  0  0  0  0  0  0  0  0999 V2000
  -13.0778  -72.1834  -20.8951 C   0  0  0  0  0  0  0  0  0  0  0  0
  -12.8075  -70.8652  -20.8328 C   0  0  0  0  0  0  0  0  0  0  0  0
  -13.8834  -69.7944  -20.8008 C   0  0  0  0  0  0  0  0  0  0  0  0
  -15.0824  -70.2580  -21.4085 O   0  0  0  0  0  0  0  0  0  0  0  0
  -15.3385  -69.7166  -22.7114 C   0  0  0  0  0  0  0  0  0  0  0  0
  -14.2930  -70.1142  -23.7482 C   0  0  0  0  0  0  0  0  0  0  0  0
  -16.7027  -70.2573  -23.1303 C   0  0  0  0  0  0  0  0  0  0  0  0
  -11.4181  -70.2805  -20.8679 C   0  0  2  0  0  0  0  0  0  0  0  0
  -11.1120  -70.0286  -22.2384 O   0  0  0  0  0  0  0  0  0  0  0  0
  -10.2757  -70.9818  -20.1752 C   0  0  0  0  0  0  0  0  0  0  0  0
  -10.4306  -71.6544  -18.9567 C   0  0  0  0  0  0  0  0  0  0  0  0
   -9.3202  -72.1841  -18.3041 C   0  0  0  0  0  0  0  0  0  0  0  0
   -8.0737  -72.0020  -18.8761 C   0  0  0  0  0  0  0  0  0  0  0  0
   -7.8724  -71.3326  -20.0273 N   0  0  0  0  0  0  0  0  0  0  0  0
   -8.9702  -70.8380  -20.6462 C   0  0  0  0  0  0  0  0  0  0  0  0
  1  2  2  0
  2  3  1  0
  3  4  1  0
  4  5  1  0
  5  6  1  0
  5  7  1  0
  2  8  1  0
  8  9  1  6
  8 10  1  0
 10 11  2  0
 11 12  1  0
 12 13  2  0
 13 14  1  0
 14 15  2  0
 15 10  1  0
M  END
>  <SLURM_JOB_NAME>  (231) 
BulkDock.place:Flavi_NS5_RdRp:RdRp_knitwork_thumb_site_2_impure_split4000_batch000

>  <fragmenstein_error>  (231) 
['']

>  <HIPPO Compound ID>  (231) 
6652

>  <alias>  (231) 
None

>  <energy_score>  (231) 
-48.023109

>  <exports>  (231) 
['/opt/xchem-fragalysis-2/maxwin/BulkDock/OUTPUTS/RdRp_knitwork_thumb_site_2_impure_split4000_batch000_211013.sdf']

>  <fragmenstein_outcome>  (231) 
['acceptable']

>  <fragmenstein_mode>  (231) 
['expansion']

>  <HIPPO Pose ID>  (231) 
51878

>  <name>  (231) 
IGLGACDIMWDVTG-LBPRGKRZSA-N

>  <fragmenstein_runtime>  (231) 
[2.1105873584747314]

>  <csv_name>  (231) 
RdRp_knitwork_thumb_site_2_impure_split4000_batch000.csv

>  <inchikey>  (231) 
IGLGACDIMWDVTG-LBPRGKRZSA-N

>  <original SMILES>  (231) 
C=C(COC(C)C)[C@H](O)c1cccnc1

>  <scratch_subdir>  (231) 
['/opt/xchem-fragalysis-2/maxwin/BulkDock/SCRATCH/211013/C6652-P50']

>  <tags>  (231) 
['Fragmenstein placed']

>  <distance_score>  (231) 
0.708031

>  <original ID>  (231) 
IGLGACDIMWDVTG-LBPRGKRZSA-N

>  <ref_mols>  (231) 
d0174a,d0615a

>  <SLURM_JOB_ID>  (231) 
211013

>  <ref_pdb>  (231) 
d0615a

$$$$
51883
     RDKit          3D

 15 15  0  0  0  0  0  0  0  0999 V2000
  -14.6800  -69.6758  -22.4500 C   0  0  0  0  0  0  0  0  0  0  0  0
  -14.6100  -69.8945  -20.9637 C   0  0  0  0  0  0  0  0  0  0  0  0
  -15.5649  -69.0954  -20.1408 C   0  0  0  0  0  0  0  0  0  0  0  0
  -13.7491  -70.7046  -20.3290 C   0  0  0  0  0  0  0  0  0  0  0  0
  -12.6673  -71.4500  -21.0182 C   0  0  0  0  0  0  0  0  0  0  0  0
  -12.8851  -72.5940  -21.4107 O   0  0  0  0  0  0  0  0  0  0  0  0
  -11.3083  -70.7328  -21.1330 C   0  0  1  0  0  0  0  0  0  0  0  0
  -10.9759  -70.6502  -22.6248 C   0  0  0  0  0  0  0  0  0  0  0  0
  -11.4729  -69.4023  -20.6403 O   0  0  0  0  0  0  0  0  0  0  0  0
  -10.1872  -71.3140  -20.2950 C   0  0  0  0  0  0  0  0  0  0  0  0
  -10.3694  -72.3182  -19.3398 C   0  0  0  0  0  0  0  0  0  0  0  0
   -9.3004  -72.7238  -18.5428 C   0  0  0  0  0  0  0  0  0  0  0  0
   -8.0729  -72.1103  -18.7173 C   0  0  0  0  0  0  0  0  0  0  0  0
   -7.8551  -71.1256  -19.6077 N   0  0  0  0  0  0  0  0  0  0  0  0
   -8.9054  -70.7583  -20.3758 C   0  0  0  0  0  0  0  0  0  0  0  0
  1  2  1  0
  2  3  1  0
  2  4  2  3
  4  5  1  0
  5  6  2  0
  5  7  1  0
  7  8  1  6
  7  9  1  0
  7 10  1  0
 10 11  2  0
 11 12  1  0
 12 13  2  0
 13 14  1  0
 14 15  2  0
 15 10  1  0
M  END
>  <SLURM_JOB_NAME>  (232) 
BulkDock.place:Flavi_NS5_RdRp:RdRp_knitwork_thumb_site_2_impure_split4000_batch000

>  <fragmenstein_error>  (232) 
['']

>  <HIPPO Compound ID>  (232) 
6659

>  <alias>  (232) 
None

>  <energy_score>  (232) 
-63.923618

>  <exports>  (232) 
['/opt/xchem-fragalysis-2/maxwin/BulkDock/OUTPUTS/RdRp_knitwork_thumb_site_2_impure_split4000_batch000_211013.sdf']

>  <fragmenstein_outcome>  (232) 
['acceptable']

>  <fragmenstein_mode>  (232) 
['expansion']

>  <HIPPO Pose ID>  (232) 
51883

>  <name>  (232) 
UDRVITDHCXDLGO-LBPRGKRZSA-N

>  <fragmenstein_runtime>  (232) 
[1.6802055835723877]

>  <csv_name>  (232) 
RdRp_knitwork_thumb_site_2_impure_split4000_batch000.csv

>  <inchikey>  (232) 
UDRVITDHCXDLGO-LBPRGKRZSA-N

>  <original SMILES>  (232) 
CC(C)=CC(=O)[C@@](C)(O)c1cccnc1

>  <scratch_subdir>  (232) 
['/opt/xchem-fragalysis-2/maxwin/BulkDock/SCRATCH/211013/C6659-P17']

>  <tags>  (232) 
['Fragmenstein placed']

>  <distance_score>  (232) 
0.997545

>  <original ID>  (232) 
UDRVITDHCXDLGO-LBPRGKRZSA-N

>  <ref_mols>  (232) 
d0174a,d0615a

>  <SLURM_JOB_ID>  (232) 
211013

>  <ref_pdb>  (232) 
d0174a

$$$$
51884
     RDKit          3D

 15 15  0  0  0  0  0  0  0  0999 V2000
  -14.8058  -69.8536  -22.6131 C   0  0  0  0  0  0  0  0  0  0  0  0
  -14.8294  -69.8015  -21.1109 C   0  0  0  0  0  0  0  0  0  0  0  0
  -15.8652  -68.8956  -20.5218 C   0  0  0  0  0  0  0  0  0  0  0  0
  -14.0015  -70.4691  -20.2904 C   0  0  0  0  0  0  0  0  0  0  0  0
  -12.8862  -71.3344  -20.7666 C   0  0  0  0  0  0  0  0  0  0  0  0
  -13.1114  -72.5257  -20.9715 O   0  0  0  0  0  0  0  0  0  0  0  0
  -11.5087  -70.6606  -20.9423 C   0  0  1  0  0  0  0  0  0  0  0  0
  -11.2307  -70.6079  -22.4487 C   0  0  0  0  0  0  0  0  0  0  0  0
  -11.6328  -69.3252  -20.4498 O   0  0  0  0  0  0  0  0  0  0  0  0
  -10.3571  -71.2585  -20.1558 C   0  0  0  0  0  0  0  0  0  0  0  0
  -10.4975  -72.2807  -19.2144 C   0  0  0  0  0  0  0  0  0  0  0  0
   -9.3926  -72.7082  -18.4788 C   0  0  0  0  0  0  0  0  0  0  0  0
   -8.1707  -72.0975  -18.6980 C   0  0  0  0  0  0  0  0  0  0  0  0
   -7.9905  -71.0944  -19.5755 N   0  0  0  0  0  0  0  0  0  0  0  0
   -9.0757  -70.7056  -20.2825 C   0  0  0  0  0  0  0  0  0  0  0  0
  1  2  1  0
  2  3  1  0
  2  4  2  3
  4  5  1  0
  5  6  2  0
  5  7  1  0
  7  8  1  6
  7  9  1  0
  7 10  1  0
 10 11  2  0
 11 12  1  0
 12 13  2  0
 13 14  1  0
 14 15  2  0
 15 10  1  0
M  END
>  <SLURM_JOB_NAME>  (233) 
BulkDock.place:Flavi_NS5_RdRp:RdRp_knitwork_thumb_site_2_impure_split4000_batch000

>  <fragmenstein_error>  (233) 
['']

>  <HIPPO Compound ID>  (233) 
6659

>  <alias>  (233) 
None

>  <energy_score>  (233) 
-63.933422

>  <exports>  (233) 
['/opt/xchem-fragalysis-2/maxwin/BulkDock/OUTPUTS/RdRp_knitwork_thumb_site_2_impure_split4000_batch000_211013.sdf']

>  <fragmenstein_outcome>  (233) 
['acceptable']

>  <fragmenstein_mode>  (233) 
['expansion']

>  <HIPPO Pose ID>  (233) 
51884

>  <name>  (233) 
UDRVITDHCXDLGO-LBPRGKRZSA-N

>  <fragmenstein_runtime>  (233) 
[2.049124240875244]

>  <csv_name>  (233) 
RdRp_knitwork_thumb_site_2_impure_split4000_batch000.csv

>  <inchikey>  (233) 
UDRVITDHCXDLGO-LBPRGKRZSA-N

>  <original SMILES>  (233) 
CC(C)=CC(=O)[C@@](C)(O)c1cccnc1

>  <scratch_subdir>  (233) 
['/opt/xchem-fragalysis-2/maxwin/BulkDock/SCRATCH/211013/C6659-P50']

>  <tags>  (233) 
['Fragmenstein placed']

>  <distance_score>  (233) 
0.903177

>  <original ID>  (233) 
UDRVITDHCXDLGO-LBPRGKRZSA-N

>  <ref_mols>  (233) 
d0174a,d0615a

>  <SLURM_JOB_ID>  (233) 
211013

>  <ref_pdb>  (233) 
d0615a

$$$$
51886
     RDKit          3D

 15 15  0  0  0  0  0  0  0  0999 V2000
  -12.6843  -70.9632  -23.7258 C   0  0  0  0  0  0  0  0  0  0  0  0
  -11.5408  -71.3882  -22.7909 C   0  0  0  0  0  0  0  0  0  0  0  0
  -10.2163  -71.1707  -23.5289 C   0  0  0  0  0  0  0  0  0  0  0  0
  -11.6023  -70.6458  -21.4307 C   0  0  1  0  0  0  0  0  0  0  0  0
  -12.9261  -70.9044  -20.8277 N   0  0  0  0  0  0  0  0  0  0  0  0
  -13.7554  -69.6565  -20.1056 S   0  0  0  0  0  0  0  0  0  0  0  0
  -14.9477  -69.2468  -21.3593 C   0  0  0  0  0  0  0  0  0  0  0  0
  -12.8662  -68.5370  -19.9396 O   0  0  0  0  0  0  0  0  0  0  0  0
  -14.4533  -70.2379  -18.9760 O   0  0  0  0  0  0  0  0  0  0  0  0
  -10.4593  -71.0064  -20.4877 C   0  0  0  0  0  0  0  0  0  0  0  0
  -10.5626  -71.9977  -19.5042 C   0  0  0  0  0  0  0  0  0  0  0  0
   -9.4659  -72.2670  -18.6953 C   0  0  0  0  0  0  0  0  0  0  0  0
   -8.2771  -71.6423  -18.8023 N   0  0  0  0  0  0  0  0  0  0  0  0
   -8.1808  -70.7017  -19.7633 C   0  0  0  0  0  0  0  0  0  0  0  0
   -9.2282  -70.3430  -20.5998 C   0  0  0  0  0  0  0  0  0  0  0  0
  1  2  1  0
  2  3  1  0
  2  4  1  0
  4  5  1  1
  5  6  1  0
  6  7  1  0
  6  8  2  0
  6  9  2  0
  4 10  1  0
 10 11  2  0
 11 12  1  0
 12 13  2  0
 13 14  1  0
 14 15  2  0
 15 10  1  0
M  END
>  <SLURM_JOB_NAME>  (234) 
BulkDock.place:Flavi_NS5_RdRp:RdRp_knitwork_thumb_site_2_impure_split4000_batch000

>  <fragmenstein_error>  (234) 
['']

>  <HIPPO Compound ID>  (234) 
6710

>  <alias>  (234) 
None

>  <energy_score>  (234) 
-37.824226

>  <exports>  (234) 
['/opt/xchem-fragalysis-2/maxwin/BulkDock/OUTPUTS/RdRp_knitwork_thumb_site_2_impure_split4000_batch000_211013.sdf']

>  <fragmenstein_outcome>  (234) 
['acceptable']

>  <fragmenstein_mode>  (234) 
['expansion']

>  <HIPPO Pose ID>  (234) 
51886

>  <name>  (234) 
HSBYGEOWLQMFBK-SNVBAGLBSA-N

>  <fragmenstein_runtime>  (234) 
[2.603020668029785]

>  <csv_name>  (234) 
RdRp_knitwork_thumb_site_2_impure_split4000_batch000.csv

>  <inchikey>  (234) 
HSBYGEOWLQMFBK-SNVBAGLBSA-N

>  <original SMILES>  (234) 
CC(C)[C@@H](NS(C)(=O)=O)c1ccncc1

>  <scratch_subdir>  (234) 
['/opt/xchem-fragalysis-2/maxwin/BulkDock/SCRATCH/211013/C6710-P17']

>  <tags>  (234) 
['Fragmenstein placed']

>  <distance_score>  (234) 
0.838047

>  <original ID>  (234) 
HSBYGEOWLQMFBK-SNVBAGLBSA-N

>  <ref_mols>  (234) 
d0174a,d0615a

>  <SLURM_JOB_ID>  (234) 
211013

>  <ref_pdb>  (234) 
d0174a

$$$$
51889
     RDKit          3D

 15 15  0  0  0  0  0  0  0  0999 V2000
  -12.6478  -70.9076  -23.7507 C   0  0  0  0  0  0  0  0  0  0  0  0
  -11.5314  -71.3630  -22.7959 C   0  0  0  0  0  0  0  0  0  0  0  0
  -10.1882  -71.1832  -23.5100 C   0  0  0  0  0  0  0  0  0  0  0  0
  -11.6169  -70.6243  -21.4326 C   0  0  1  0  0  0  0  0  0  0  0  0
  -12.9440  -70.9255  -20.8500 N   0  0  0  0  0  0  0  0  0  0  0  0
  -13.7908  -69.7239  -20.0657 S   0  0  0  0  0  0  0  0  0  0  0  0
  -15.0923  -69.3877  -21.2329 C   0  0  0  0  0  0  0  0  0  0  0  0
  -12.9591  -68.5538  -19.9610 O   0  0  0  0  0  0  0  0  0  0  0  0
  -14.3708  -70.3485  -18.8937 O   0  0  0  0  0  0  0  0  0  0  0  0
  -10.4726  -70.9601  -20.4806 C   0  0  0  0  0  0  0  0  0  0  0  0
  -10.5689  -71.9331  -19.4782 C   0  0  0  0  0  0  0  0  0  0  0  0
   -9.4703  -72.1809  -18.6644 C   0  0  0  0  0  0  0  0  0  0  0  0
   -8.2850  -71.5509  -18.7823 N   0  0  0  0  0  0  0  0  0  0  0  0
   -8.1958  -70.6264  -19.7591 C   0  0  0  0  0  0  0  0  0  0  0  0
   -9.2455  -70.2898  -20.6021 C   0  0  0  0  0  0  0  0  0  0  0  0
  1  2  1  0
  2  3  1  0
  2  4  1  0
  4  5  1  1
  5  6  1  0
  6  7  1  0
  6  8  2  0
  6  9  2  0
  4 10  1  0
 10 11  2  0
 11 12  1  0
 12 13  2  0
 13 14  1  0
 14 15  2  0
 15 10  1  0
M  END
>  <SLURM_JOB_NAME>  (235) 
BulkDock.place:Flavi_NS5_RdRp:RdRp_knitwork_thumb_site_2_impure_split4000_batch000

>  <fragmenstein_error>  (235) 
['']

>  <HIPPO Compound ID>  (235) 
6710

>  <alias>  (235) 
None

>  <energy_score>  (235) 
-37.571717

>  <exports>  (235) 
['/opt/xchem-fragalysis-2/maxwin/BulkDock/OUTPUTS/RdRp_knitwork_thumb_site_2_impure_split4000_batch000_211013.sdf']

>  <fragmenstein_outcome>  (235) 
['acceptable']

>  <fragmenstein_mode>  (235) 
['expansion']

>  <HIPPO Pose ID>  (235) 
51889

>  <name>  (235) 
HSBYGEOWLQMFBK-SNVBAGLBSA-N

>  <fragmenstein_runtime>  (235) 
[2.4796218872070312]

>  <csv_name>  (235) 
RdRp_knitwork_thumb_site_2_impure_split4000_batch000.csv

>  <inchikey>  (235) 
HSBYGEOWLQMFBK-SNVBAGLBSA-N

>  <original SMILES>  (235) 
CC(C)[C@@H](NS(C)(=O)=O)c1ccncc1

>  <scratch_subdir>  (235) 
['/opt/xchem-fragalysis-2/maxwin/BulkDock/SCRATCH/211013/C6710-P50']

>  <tags>  (235) 
['Fragmenstein placed']

>  <distance_score>  (235) 
0.748127

>  <original ID>  (235) 
HSBYGEOWLQMFBK-SNVBAGLBSA-N

>  <ref_mols>  (235) 
d0174a,d0615a

>  <SLURM_JOB_ID>  (235) 
211013

>  <ref_pdb>  (235) 
d0615a

$$$$
51891
     RDKit          3D

 12 12  0  0  0  0  0  0  0  0999 V2000
  -13.6068  -69.9613  -20.0535 C   0  0  0  0  0  0  0  0  0  0  0  0
  -13.0678  -70.8770  -21.1450 C   0  0  0  0  0  0  0  0  0  0  0  0
  -13.3436  -72.3545  -20.8900 C   0  0  0  0  0  0  0  0  0  0  0  0
  -13.8410  -70.5558  -22.3230 O   0  0  0  0  0  0  0  0  0  0  0  0
  -11.5934  -70.5598  -21.4796 C   0  0  0  0  0  0  0  0  0  0  0  0
  -11.3403  -69.9843  -22.5450 O   0  0  0  0  0  0  0  0  0  0  0  0
  -10.4602  -70.8828  -20.5629 C   0  0  0  0  0  0  0  0  0  0  0  0
  -10.5803  -71.4298  -19.2843 C   0  0  0  0  0  0  0  0  0  0  0  0
   -9.4351  -71.7060  -18.5323 C   0  0  0  0  0  0  0  0  0  0  0  0
   -8.1980  -71.4115  -19.0769 C   0  0  0  0  0  0  0  0  0  0  0  0
   -8.0412  -70.8596  -20.2946 N   0  0  0  0  0  0  0  0  0  0  0  0
   -9.1686  -70.6121  -21.0104 C   0  0  0  0  0  0  0  0  0  0  0  0
  1  2  1  0
  2  3  1  0
  2  4  1  0
  2  5  1  0
  5  6  2  0
  5  7  1  0
  7  8  2  0
  8  9  1  0
  9 10  2  0
 10 11  1  0
 11 12  2  0
 12  7  1  0
M  END
>  <SLURM_JOB_NAME>  (236) 
BulkDock.place:Flavi_NS5_RdRp:RdRp_knitwork_thumb_site_2_impure_split4000_batch000

>  <fragmenstein_error>  (236) 
['']

>  <HIPPO Compound ID>  (236) 
6721

>  <alias>  (236) 
None

>  <energy_score>  (236) 
-31.480696

>  <exports>  (236) 
['/opt/xchem-fragalysis-2/maxwin/BulkDock/OUTPUTS/RdRp_knitwork_thumb_site_2_impure_split4000_batch000_211013.sdf']

>  <fragmenstein_outcome>  (236) 
['acceptable']

>  <fragmenstein_mode>  (236) 
['expansion']

>  <HIPPO Pose ID>  (236) 
51891

>  <name>  (236) 
ILUOAQDFIABEJK-UHFFFAOYSA-N

>  <fragmenstein_runtime>  (236) 
[1.412440299987793]

>  <csv_name>  (236) 
RdRp_knitwork_thumb_site_2_impure_split4000_batch000.csv

>  <inchikey>  (236) 
ILUOAQDFIABEJK-UHFFFAOYSA-N

>  <original SMILES>  (236) 
CC(C)(O)C(=O)c1cccnc1

>  <scratch_subdir>  (236) 
['/opt/xchem-fragalysis-2/maxwin/BulkDock/SCRATCH/211013/C6721-P17']

>  <tags>  (236) 
['Fragmenstein placed']

>  <distance_score>  (236) 
0.834448

>  <original ID>  (236) 
ILUOAQDFIABEJK-UHFFFAOYSA-N

>  <ref_mols>  (236) 
d0174a,d0615a

>  <SLURM_JOB_ID>  (236) 
211013

>  <ref_pdb>  (236) 
d0174a

$$$$
51893
     RDKit          3D

 12 12  0  0  0  0  0  0  0  0999 V2000
  -13.9456  -70.0499  -21.6391 C   0  0  0  0  0  0  0  0  0  0  0  0
  -12.8894  -70.5487  -20.6516 C   0  0  0  0  0  0  0  0  0  0  0  0
  -12.8993  -69.5942  -19.4668 C   0  0  0  0  0  0  0  0  0  0  0  0
  -13.3044  -71.8324  -20.1953 O   0  0  0  0  0  0  0  0  0  0  0  0
  -11.4827  -70.5516  -21.3017 C   0  0  0  0  0  0  0  0  0  0  0  0
  -11.3071  -70.1934  -22.4670 O   0  0  0  0  0  0  0  0  0  0  0  0
  -10.2905  -70.9493  -20.5007 C   0  0  0  0  0  0  0  0  0  0  0  0
  -10.3440  -71.7594  -19.3639 C   0  0  0  0  0  0  0  0  0  0  0  0
   -9.1720  -72.0523  -18.6664 C   0  0  0  0  0  0  0  0  0  0  0  0
   -7.9792  -71.5276  -19.1329 C   0  0  0  0  0  0  0  0  0  0  0  0
   -7.8887  -70.7448  -20.2273 N   0  0  0  0  0  0  0  0  0  0  0  0
   -9.0414  -70.4809  -20.8938 C   0  0  0  0  0  0  0  0  0  0  0  0
  1  2  1  0
  2  3  1  0
  2  4  1  0
  2  5  1  0
  5  6  2  0
  5  7  1  0
  7  8  2  0
  8  9  1  0
  9 10  2  0
 10 11  1  0
 11 12  2  0
 12  7  1  0
M  END
>  <SLURM_JOB_NAME>  (237) 
BulkDock.place:Flavi_NS5_RdRp:RdRp_knitwork_thumb_site_2_impure_split4000_batch000

>  <fragmenstein_error>  (237) 
['']

>  <HIPPO Compound ID>  (237) 
6721

>  <alias>  (237) 
None

>  <energy_score>  (237) 
-31.829206

>  <exports>  (237) 
['/opt/xchem-fragalysis-2/maxwin/BulkDock/OUTPUTS/RdRp_knitwork_thumb_site_2_impure_split4000_batch000_211013.sdf']

>  <fragmenstein_outcome>  (237) 
['acceptable']

>  <fragmenstein_mode>  (237) 
['expansion']

>  <HIPPO Pose ID>  (237) 
51893

>  <name>  (237) 
ILUOAQDFIABEJK-UHFFFAOYSA-N

>  <fragmenstein_runtime>  (237) 
[1.3165853023529053]

>  <csv_name>  (237) 
RdRp_knitwork_thumb_site_2_impure_split4000_batch000.csv

>  <inchikey>  (237) 
ILUOAQDFIABEJK-UHFFFAOYSA-N

>  <original SMILES>  (237) 
CC(C)(O)C(=O)c1cccnc1

>  <scratch_subdir>  (237) 
['/opt/xchem-fragalysis-2/maxwin/BulkDock/SCRATCH/211013/C6721-P50']

>  <tags>  (237) 
['Fragmenstein placed']

>  <distance_score>  (237) 
0.792131

>  <original ID>  (237) 
ILUOAQDFIABEJK-UHFFFAOYSA-N

>  <ref_mols>  (237) 
d0174a,d0615a

>  <SLURM_JOB_ID>  (237) 
211013

>  <ref_pdb>  (237) 
d0615a

$$$$
51897
     RDKit          3D

 13 13  0  0  0  0  0  0  0  0999 V2000
  -15.0368  -70.2603  -21.7303 C   0  0  0  0  0  0  0  0  0  0  0  0
  -14.1742  -69.9610  -20.5119 C   0  0  0  0  0  0  0  0  0  0  0  0
  -13.7812  -68.5001  -20.4892 C   0  0  0  0  0  0  0  0  0  0  0  0
  -12.9928  -70.9332  -20.4312 C   0  0  0  0  0  0  0  0  0  0  0  0
  -13.2046  -72.0583  -19.9683 O   0  0  0  0  0  0  0  0  0  0  0  0
  -11.6214  -70.4827  -20.9832 C   0  0  2  0  0  0  0  0  0  0  0  0
  -11.5514  -70.6551  -22.3921 O   0  0  0  0  0  0  0  0  0  0  0  0
  -10.3894  -71.0495  -20.3052 C   0  0  0  0  0  0  0  0  0  0  0  0
  -10.3911  -71.6205  -19.0266 C   0  0  0  0  0  0  0  0  0  0  0  0
   -9.1945  -72.0103  -18.4275 C   0  0  0  0  0  0  0  0  0  0  0  0
   -8.0145  -71.7897  -19.1129 C   0  0  0  0  0  0  0  0  0  0  0  0
   -7.9585  -71.2162  -20.3298 N   0  0  0  0  0  0  0  0  0  0  0  0
   -9.1386  -70.8725  -20.8990 C   0  0  0  0  0  0  0  0  0  0  0  0
  1  2  1  0
  2  3  1  0
  2  4  1  0
  4  5  2  0
  4  6  1  0
  6  7  1  6
  6  8  1  0
  8  9  2  0
  9 10  1  0
 10 11  2  0
 11 12  1  0
 12 13  2  0
 13  8  1  0
M  END
>  <SLURM_JOB_NAME>  (238) 
BulkDock.place:Flavi_NS5_RdRp:RdRp_knitwork_thumb_site_2_impure_split4000_batch000

>  <fragmenstein_error>  (238) 
['']

>  <HIPPO Compound ID>  (238) 
6738

>  <alias>  (238) 
None

>  <energy_score>  (238) 
-31.871904

>  <exports>  (238) 
['/opt/xchem-fragalysis-2/maxwin/BulkDock/OUTPUTS/RdRp_knitwork_thumb_site_2_impure_split4000_batch000_211013.sdf']

>  <fragmenstein_outcome>  (238) 
['acceptable']

>  <fragmenstein_mode>  (238) 
['expansion']

>  <HIPPO Pose ID>  (238) 
51897

>  <name>  (238) 
DSAGNOUYTJGSCL-SNVBAGLBSA-N

>  <fragmenstein_runtime>  (238) 
[2.1218314170837402]

>  <csv_name>  (238) 
RdRp_knitwork_thumb_site_2_impure_split4000_batch000.csv

>  <inchikey>  (238) 
DSAGNOUYTJGSCL-SNVBAGLBSA-N

>  <original SMILES>  (238) 
CC(C)C(=O)[C@H](O)c1cccnc1

>  <scratch_subdir>  (238) 
['/opt/xchem-fragalysis-2/maxwin/BulkDock/SCRATCH/211013/C6738-P17']

>  <tags>  (238) 
['Fragmenstein placed']

>  <distance_score>  (238) 
0.529077

>  <original ID>  (238) 
DSAGNOUYTJGSCL-SNVBAGLBSA-N

>  <ref_mols>  (238) 
d0174a,d0615a

>  <SLURM_JOB_ID>  (238) 
211013

>  <ref_pdb>  (238) 
d0174a

$$$$
51898
     RDKit          3D

 13 13  0  0  0  0  0  0  0  0999 V2000
  -15.0735  -70.3526  -21.6842 C   0  0  0  0  0  0  0  0  0  0  0  0
  -14.2056  -69.9984  -20.4850 C   0  0  0  0  0  0  0  0  0  0  0  0
  -13.8209  -68.5363  -20.5276 C   0  0  0  0  0  0  0  0  0  0  0  0
  -13.0119  -70.9517  -20.3683 C   0  0  0  0  0  0  0  0  0  0  0  0
  -13.2008  -72.0437  -19.8221 O   0  0  0  0  0  0  0  0  0  0  0  0
  -11.6548  -70.5199  -20.9751 C   0  0  2  0  0  0  0  0  0  0  0  0
  -11.6143  -70.7464  -22.3772 O   0  0  0  0  0  0  0  0  0  0  0  0
  -10.4055  -71.0530  -20.2996 C   0  0  0  0  0  0  0  0  0  0  0  0
  -10.3740  -71.5326  -18.9840 C   0  0  0  0  0  0  0  0  0  0  0  0
   -9.1650  -71.8998  -18.3957 C   0  0  0  0  0  0  0  0  0  0  0  0
   -8.0042  -71.7450  -19.1296 C   0  0  0  0  0  0  0  0  0  0  0  0
   -7.9787  -71.2571  -20.3844 N   0  0  0  0  0  0  0  0  0  0  0  0
   -9.1712  -70.9345  -20.9404 C   0  0  0  0  0  0  0  0  0  0  0  0
  1  2  1  0
  2  3  1  0
  2  4  1  0
  4  5  2  0
  4  6  1  0
  6  7  1  6
  6  8  1  0
  8  9  2  0
  9 10  1  0
 10 11  2  0
 11 12  1  0
 12 13  2  0
 13  8  1  0
M  END
>  <SLURM_JOB_NAME>  (239) 
BulkDock.place:Flavi_NS5_RdRp:RdRp_knitwork_thumb_site_2_impure_split4000_batch000

>  <fragmenstein_error>  (239) 
['']

>  <HIPPO Compound ID>  (239) 
6738

>  <alias>  (239) 
None

>  <energy_score>  (239) 
-31.800546

>  <exports>  (239) 
['/opt/xchem-fragalysis-2/maxwin/BulkDock/OUTPUTS/RdRp_knitwork_thumb_site_2_impure_split4000_batch000_211013.sdf']

>  <fragmenstein_outcome>  (239) 
['acceptable']

>  <fragmenstein_mode>  (239) 
['expansion']

>  <HIPPO Pose ID>  (239) 
51898

>  <name>  (239) 
DSAGNOUYTJGSCL-SNVBAGLBSA-N

>  <fragmenstein_runtime>  (239) 
[2.250162363052368]

>  <csv_name>  (239) 
RdRp_knitwork_thumb_site_2_impure_split4000_batch000.csv

>  <inchikey>  (239) 
DSAGNOUYTJGSCL-SNVBAGLBSA-N

>  <original SMILES>  (239) 
CC(C)C(=O)[C@H](O)c1cccnc1

>  <scratch_subdir>  (239) 
['/opt/xchem-fragalysis-2/maxwin/BulkDock/SCRATCH/211013/C6738-P50']

>  <tags>  (239) 
['Fragmenstein placed']

>  <distance_score>  (239) 
0.559201

>  <original ID>  (239) 
DSAGNOUYTJGSCL-SNVBAGLBSA-N

>  <ref_mols>  (239) 
d0174a,d0615a

>  <SLURM_JOB_ID>  (239) 
211013

>  <ref_pdb>  (239) 
d0615a

$$$$
51901
     RDKit          3D

 13 13  0  0  0  0  0  0  0  0999 V2000
  -11.4378  -71.2295  -22.7187 C   0  0  0  0  0  0  0  0  0  0  0  0
  -11.5340  -70.5844  -21.3379 C   0  0  1  0  0  0  0  0  0  0  0  0
  -12.8604  -70.9476  -20.7846 N   0  0  0  0  0  0  0  0  0  0  0  0
  -13.8018  -69.7379  -20.1299 S   0  0  0  0  0  0  0  0  0  0  0  0
  -15.0032  -69.4937  -21.4171 C   0  0  0  0  0  0  0  0  0  0  0  0
  -13.0104  -68.5421  -20.0015 O   0  0  0  0  0  0  0  0  0  0  0  0
  -14.4543  -70.3193  -18.9745 O   0  0  0  0  0  0  0  0  0  0  0  0
  -10.3502  -70.9399  -20.4404 C   0  0  0  0  0  0  0  0  0  0  0  0
  -10.5048  -71.1648  -19.0702 C   0  0  0  0  0  0  0  0  0  0  0  0
   -9.3860  -71.4607  -18.2927 C   0  0  0  0  0  0  0  0  0  0  0  0
   -8.1334  -71.4977  -18.8875 C   0  0  0  0  0  0  0  0  0  0  0  0
   -8.0527  -71.2365  -20.2421 C   0  0  0  0  0  0  0  0  0  0  0  0
   -9.1231  -70.9635  -21.0211 N   0  0  0  0  0  0  0  0  0  0  0  0
  2  1  1  6
  2  3  1  0
  3  4  1  0
  4  5  1  0
  4  6  2  0
  4  7  2  0
  2  8  1  0
  8  9  2  0
  9 10  1  0
 10 11  2  0
 11 12  1  0
 12 13  2  0
 13  8  1  0
M  END
>  <SLURM_JOB_NAME>  (240) 
BulkDock.place:Flavi_NS5_RdRp:RdRp_knitwork_thumb_site_2_impure_split4000_batch000

>  <fragmenstein_error>  (240) 
['']

>  <HIPPO Compound ID>  (240) 
6745

>  <alias>  (240) 
None

>  <energy_score>  (240) 
-27.402346

>  <exports>  (240) 
['/opt/xchem-fragalysis-2/maxwin/BulkDock/OUTPUTS/RdRp_knitwork_thumb_site_2_impure_split4000_batch000_211013.sdf']

>  <fragmenstein_outcome>  (240) 
['acceptable']

>  <fragmenstein_mode>  (240) 
['expansion']

>  <HIPPO Pose ID>  (240) 
51901

>  <name>  (240) 
FKYZVQMLDJQCKR-SSDOTTSWSA-N

>  <fragmenstein_runtime>  (240) 
[1.6832411289215088]

>  <csv_name>  (240) 
RdRp_knitwork_thumb_site_2_impure_split4000_batch000.csv

>  <inchikey>  (240) 
FKYZVQMLDJQCKR-SSDOTTSWSA-N

>  <original SMILES>  (240) 
C[C@@H](NS(C)(=O)=O)c1ccccn1

>  <scratch_subdir>  (240) 
['/opt/xchem-fragalysis-2/maxwin/BulkDock/SCRATCH/211013/C6745-P17']

>  <tags>  (240) 
['Fragmenstein placed']

>  <distance_score>  (240) 
0.774163

>  <original ID>  (240) 
FKYZVQMLDJQCKR-SSDOTTSWSA-N

>  <ref_mols>  (240) 
d0174a,d0615a

>  <SLURM_JOB_ID>  (240) 
211013

>  <ref_pdb>  (240) 
d0174a

$$$$
51903
     RDKit          3D

 13 13  0  0  0  0  0  0  0  0999 V2000
  -11.5078  -71.1326  -22.7539 C   0  0  0  0  0  0  0  0  0  0  0  0
  -11.6194  -70.5301  -21.3537 C   0  0  1  0  0  0  0  0  0  0  0  0
  -12.9387  -70.9471  -20.8153 N   0  0  0  0  0  0  0  0  0  0  0  0
  -13.8887  -69.7882  -20.0758 S   0  0  0  0  0  0  0  0  0  0  0  0
  -15.2058  -69.6020  -21.2588 C   0  0  0  0  0  0  0  0  0  0  0  0
  -13.1541  -68.5520  -20.0001 O   0  0  0  0  0  0  0  0  0  0  0  0
  -14.4060  -70.4163  -18.8772 O   0  0  0  0  0  0  0  0  0  0  0  0
  -10.4286  -70.8890  -20.4644 C   0  0  0  0  0  0  0  0  0  0  0  0
  -10.5648  -71.0522  -19.0838 C   0  0  0  0  0  0  0  0  0  0  0  0
   -9.4441  -71.3634  -18.3146 C   0  0  0  0  0  0  0  0  0  0  0  0
   -8.2054  -71.4747  -18.9286 C   0  0  0  0  0  0  0  0  0  0  0  0
   -8.1403  -71.2700  -20.2935 C   0  0  0  0  0  0  0  0  0  0  0  0
   -9.2141  -70.9846  -21.0635 N   0  0  0  0  0  0  0  0  0  0  0  0
  2  1  1  6
  2  3  1  0
  3  4  1  0
  4  5  1  0
  4  6  2  0
  4  7  2  0
  2  8  1  0
  8  9  2  0
  9 10  1  0
 10 11  2  0
 11 12  1  0
 12 13  2  0
 13  8  1  0
M  END
>  <SLURM_JOB_NAME>  (241) 
BulkDock.place:Flavi_NS5_RdRp:RdRp_knitwork_thumb_site_2_impure_split4000_batch000

>  <fragmenstein_error>  (241) 
['']

>  <HIPPO Compound ID>  (241) 
6745

>  <alias>  (241) 
None

>  <energy_score>  (241) 
-27.526253

>  <exports>  (241) 
['/opt/xchem-fragalysis-2/maxwin/BulkDock/OUTPUTS/RdRp_knitwork_thumb_site_2_impure_split4000_batch000_211013.sdf']

>  <fragmenstein_outcome>  (241) 
['acceptable']

>  <fragmenstein_mode>  (241) 
['expansion']

>  <HIPPO Pose ID>  (241) 
51903

>  <name>  (241) 
FKYZVQMLDJQCKR-SSDOTTSWSA-N

>  <fragmenstein_runtime>  (241) 
[1.6375768184661865]

>  <csv_name>  (241) 
RdRp_knitwork_thumb_site_2_impure_split4000_batch000.csv

>  <inchikey>  (241) 
FKYZVQMLDJQCKR-SSDOTTSWSA-N

>  <original SMILES>  (241) 
C[C@@H](NS(C)(=O)=O)c1ccccn1

>  <scratch_subdir>  (241) 
['/opt/xchem-fragalysis-2/maxwin/BulkDock/SCRATCH/211013/C6745-P50']

>  <tags>  (241) 
['Fragmenstein placed']

>  <distance_score>  (241) 
0.787764

>  <original ID>  (241) 
FKYZVQMLDJQCKR-SSDOTTSWSA-N

>  <ref_mols>  (241) 
d0174a,d0615a

>  <SLURM_JOB_ID>  (241) 
211013

>  <ref_pdb>  (241) 
d0615a

$$$$
51905
     RDKit          3D

 14 14  0  0  0  0  0  0  0  0999 V2000
  -13.3119  -72.1674  -21.2386 C   0  0  0  0  0  0  0  0  0  0  0  0
  -12.9302  -70.9047  -20.9775 C   0  0  0  0  0  0  0  0  0  0  0  0
  -13.9348  -69.9296  -20.5011 C   0  0  0  0  0  0  0  0  0  0  0  0
  -13.8668  -69.4561  -19.3742 O   0  0  0  0  0  0  0  0  0  0  0  0
  -14.9554  -69.6656  -21.3528 O   0  0  0  0  0  0  0  0  0  0  0  0
  -14.6550  -69.5163  -22.7495 C   0  0  0  0  0  0  0  0  0  0  0  0
  -11.5577  -70.3265  -21.1182 C   0  0  2  0  0  0  0  0  0  0  0  0
  -11.2616  -70.3224  -22.5185 O   0  0  0  0  0  0  0  0  0  0  0  0
  -10.4231  -70.9258  -20.3079 C   0  0  0  0  0  0  0  0  0  0  0  0
  -10.6348  -71.6698  -19.1423 C   0  0  0  0  0  0  0  0  0  0  0  0
   -9.5374  -72.0914  -18.4054 C   0  0  0  0  0  0  0  0  0  0  0  0
   -8.2588  -71.8120  -18.7298 N   0  0  0  0  0  0  0  0  0  0  0  0
   -8.0638  -71.0773  -19.8434 C   0  0  0  0  0  0  0  0  0  0  0  0
   -9.0949  -70.6162  -20.6471 C   0  0  0  0  0  0  0  0  0  0  0  0
  1  2  2  0
  2  3  1  0
  3  4  2  0
  3  5  1  0
  5  6  1  0
  2  7  1  0
  7  8  1  6
  7  9  1  0
  9 10  2  0
 10 11  1  0
 11 12  2  0
 12 13  1  0
 13 14  2  0
 14  9  1  0
M  END
>  <SLURM_JOB_NAME>  (242) 
BulkDock.place:Flavi_NS5_RdRp:RdRp_knitwork_thumb_site_2_impure_split4000_batch000

>  <fragmenstein_error>  (242) 
['']

>  <HIPPO Compound ID>  (242) 
6748

>  <alias>  (242) 
None

>  <energy_score>  (242) 
-21.362333

>  <exports>  (242) 
['/opt/xchem-fragalysis-2/maxwin/BulkDock/OUTPUTS/RdRp_knitwork_thumb_site_2_impure_split4000_batch000_211013.sdf']

>  <fragmenstein_outcome>  (242) 
['acceptable']

>  <fragmenstein_mode>  (242) 
['expansion']

>  <HIPPO Pose ID>  (242) 
51905

>  <name>  (242) 
IELXRUKORPMBPJ-VIFPVBQESA-N

>  <fragmenstein_runtime>  (242) 
[1.6399993896484375]

>  <csv_name>  (242) 
RdRp_knitwork_thumb_site_2_impure_split4000_batch000.csv

>  <inchikey>  (242) 
IELXRUKORPMBPJ-VIFPVBQESA-N

>  <original SMILES>  (242) 
C=C(C(=O)OC)[C@H](O)c1ccncc1

>  <scratch_subdir>  (242) 
['/opt/xchem-fragalysis-2/maxwin/BulkDock/SCRATCH/211013/C6748-P17']

>  <tags>  (242) 
['Fragmenstein placed']

>  <distance_score>  (242) 
0.582688

>  <original ID>  (242) 
IELXRUKORPMBPJ-VIFPVBQESA-N

>  <ref_mols>  (242) 
d0174a,d0615a

>  <SLURM_JOB_ID>  (242) 
211013

>  <ref_pdb>  (242) 
d0174a

$$$$
51908
     RDKit          3D

 14 14  0  0  0  0  0  0  0  0999 V2000
  -13.4263  -72.1510  -21.3605 C   0  0  0  0  0  0  0  0  0  0  0  0
  -12.9704  -70.9102  -21.1141 C   0  0  0  0  0  0  0  0  0  0  0  0
  -13.8870  -69.8733  -20.5843 C   0  0  0  0  0  0  0  0  0  0  0  0
  -13.6501  -69.2723  -19.5467 O   0  0  0  0  0  0  0  0  0  0  0  0
  -15.0192  -69.6865  -21.3054 O   0  0  0  0  0  0  0  0  0  0  0  0
  -14.8832  -69.5272  -22.7248 C   0  0  0  0  0  0  0  0  0  0  0  0
  -11.5800  -70.4158  -21.3777 C   0  0  2  0  0  0  0  0  0  0  0  0
  -11.2052  -70.7889  -22.7068 O   0  0  0  0  0  0  0  0  0  0  0  0
  -10.4883  -70.8341  -20.4110 C   0  0  0  0  0  0  0  0  0  0  0  0
  -10.7492  -71.2318  -19.0949 C   0  0  0  0  0  0  0  0  0  0  0  0
   -9.6848  -71.5382  -18.2576 C   0  0  0  0  0  0  0  0  0  0  0  0
   -8.3888  -71.4590  -18.6207 N   0  0  0  0  0  0  0  0  0  0  0  0
   -8.1460  -71.0587  -19.8864 C   0  0  0  0  0  0  0  0  0  0  0  0
   -9.1419  -70.7377  -20.7970 C   0  0  0  0  0  0  0  0  0  0  0  0
  1  2  2  0
  2  3  1  0
  3  4  2  0
  3  5  1  0
  5  6  1  0
  2  7  1  0
  7  8  1  6
  7  9  1  0
  9 10  2  0
 10 11  1  0
 11 12  2  0
 12 13  1  0
 13 14  2  0
 14  9  1  0
M  END
>  <SLURM_JOB_NAME>  (243) 
BulkDock.place:Flavi_NS5_RdRp:RdRp_knitwork_thumb_site_2_impure_split4000_batch000

>  <fragmenstein_error>  (243) 
['']

>  <HIPPO Compound ID>  (243) 
6748

>  <alias>  (243) 
None

>  <energy_score>  (243) 
-20.67527

>  <exports>  (243) 
['/opt/xchem-fragalysis-2/maxwin/BulkDock/OUTPUTS/RdRp_knitwork_thumb_site_2_impure_split4000_batch000_211013.sdf']

>  <fragmenstein_outcome>  (243) 
['acceptable']

>  <fragmenstein_mode>  (243) 
['expansion']

>  <HIPPO Pose ID>  (243) 
51908

>  <name>  (243) 
IELXRUKORPMBPJ-VIFPVBQESA-N

>  <fragmenstein_runtime>  (243) 
[1.5419557094573975]

>  <csv_name>  (243) 
RdRp_knitwork_thumb_site_2_impure_split4000_batch000.csv

>  <inchikey>  (243) 
IELXRUKORPMBPJ-VIFPVBQESA-N

>  <original SMILES>  (243) 
C=C(C(=O)OC)[C@H](O)c1ccncc1

>  <scratch_subdir>  (243) 
['/opt/xchem-fragalysis-2/maxwin/BulkDock/SCRATCH/211013/C6748-P50']

>  <tags>  (243) 
['Fragmenstein placed']

>  <distance_score>  (243) 
0.561027

>  <original ID>  (243) 
IELXRUKORPMBPJ-VIFPVBQESA-N

>  <ref_mols>  (243) 
d0174a,d0615a

>  <SLURM_JOB_ID>  (243) 
211013

>  <ref_pdb>  (243) 
d0615a

$$$$
51910
     RDKit          3D

 14 14  0  0  0  0  0  0  0  0999 V2000
  -16.2626  -70.3626  -24.8821 C   0  0  0  0  0  0  0  0  0  0  0  0
  -15.8900  -70.7712  -23.4693 C   0  0  0  0  0  0  0  0  0  0  0  0
  -14.9762  -69.7438  -22.8129 C   0  0  0  0  0  0  0  0  0  0  0  0
  -14.6885  -70.1870  -21.4841 O   0  0  0  0  0  0  0  0  0  0  0  0
  -13.8129  -69.2811  -20.8192 C   0  0  0  0  0  0  0  0  0  0  0  0
  -12.6858  -70.0420  -20.1393 C   0  0  0  0  0  0  0  0  0  0  0  0
  -11.7412  -70.7855  -21.0930 C   0  0  1  0  0  0  0  0  0  0  0  0
  -11.4182  -69.9634  -22.2237 O   0  0  0  0  0  0  0  0  0  0  0  0
  -10.4532  -71.1572  -20.3654 C   0  0  0  0  0  0  0  0  0  0  0  0
  -10.4574  -72.0520  -19.2989 C   0  0  0  0  0  0  0  0  0  0  0  0
   -9.2604  -72.3069  -18.6338 C   0  0  0  0  0  0  0  0  0  0  0  0
   -8.0951  -71.6754  -19.0539 C   0  0  0  0  0  0  0  0  0  0  0  0
   -8.1715  -70.8084  -20.1297 C   0  0  0  0  0  0  0  0  0  0  0  0
   -9.3184  -70.5320  -20.7883 N   0  0  0  0  0  0  0  0  0  0  0  0
  1  2  1  0
  2  3  1  0
  3  4  1  0
  4  5  1  0
  5  6  1  0
  6  7  1  0
  7  8  1  6
  7  9  1  0
  9 10  2  0
 10 11  1  0
 11 12  2  0
 12 13  1  0
 13 14  2  0
 14  9  1  0
M  END
>  <SLURM_JOB_NAME>  (244) 
BulkDock.place:Flavi_NS5_RdRp:RdRp_knitwork_thumb_site_2_impure_split4000_batch000

>  <fragmenstein_error>  (244) 
['']

>  <HIPPO Compound ID>  (244) 
6749

>  <alias>  (244) 
None

>  <energy_score>  (244) 
-34.586224

>  <exports>  (244) 
['/opt/xchem-fragalysis-2/maxwin/BulkDock/OUTPUTS/RdRp_knitwork_thumb_site_2_impure_split4000_batch000_211013.sdf']

>  <fragmenstein_outcome>  (244) 
['acceptable']

>  <fragmenstein_mode>  (244) 
['expansion']

>  <HIPPO Pose ID>  (244) 
51910

>  <name>  (244) 
ZXIOPGFTZPIVNB-LLVKDONJSA-N

>  <fragmenstein_runtime>  (244) 
[2.1693172454833984]

>  <csv_name>  (244) 
RdRp_knitwork_thumb_site_2_impure_split4000_batch000.csv

>  <inchikey>  (244) 
ZXIOPGFTZPIVNB-LLVKDONJSA-N

>  <original SMILES>  (244) 
CCCOCC[C@@H](O)c1ccccn1

>  <scratch_subdir>  (244) 
['/opt/xchem-fragalysis-2/maxwin/BulkDock/SCRATCH/211013/C6749-P17']

>  <tags>  (244) 
['Fragmenstein placed']

>  <distance_score>  (244) 
0.785093

>  <original ID>  (244) 
ZXIOPGFTZPIVNB-LLVKDONJSA-N

>  <ref_mols>  (244) 
d0174a,d0615a

>  <SLURM_JOB_ID>  (244) 
211013

>  <ref_pdb>  (244) 
d0174a

$$$$
51911
     RDKit          3D

 14 14  0  0  0  0  0  0  0  0999 V2000
  -16.2021  -71.1144  -23.0928 C   0  0  0  0  0  0  0  0  0  0  0  0
  -15.9461  -69.6215  -23.1928 C   0  0  0  0  0  0  0  0  0  0  0  0
  -14.6257  -69.2173  -22.5566 C   0  0  0  0  0  0  0  0  0  0  0  0
  -14.6801  -69.5180  -21.1560 O   0  0  0  0  0  0  0  0  0  0  0  0
  -13.3739  -69.7061  -20.6016 C   0  0  0  0  0  0  0  0  0  0  0  0
  -12.9002  -71.1299  -20.8949 C   0  0  0  0  0  0  0  0  0  0  0  0
  -11.4532  -71.2421  -21.3750 C   0  0  1  0  0  0  0  0  0  0  0  0
  -11.2143  -70.2975  -22.4301 O   0  0  0  0  0  0  0  0  0  0  0  0
  -10.3398  -71.1507  -20.3473 C   0  0  0  0  0  0  0  0  0  0  0  0
  -10.4158  -71.7764  -19.1061 C   0  0  0  0  0  0  0  0  0  0  0  0
   -9.2842  -71.7991  -18.2927 C   0  0  0  0  0  0  0  0  0  0  0  0
   -8.1071  -71.2124  -18.7402 C   0  0  0  0  0  0  0  0  0  0  0  0
   -8.1123  -70.6013  -19.9812 C   0  0  0  0  0  0  0  0  0  0  0  0
   -9.1953  -70.5530  -20.7855 N   0  0  0  0  0  0  0  0  0  0  0  0
  1  2  1  0
  2  3  1  0
  3  4  1  0
  4  5  1  0
  5  6  1  0
  6  7  1  0
  7  8  1  6
  7  9  1  0
  9 10  2  0
 10 11  1  0
 11 12  2  0
 12 13  1  0
 13 14  2  0
 14  9  1  0
M  END
>  <SLURM_JOB_NAME>  (245) 
BulkDock.place:Flavi_NS5_RdRp:RdRp_knitwork_thumb_site_2_impure_split4000_batch000

>  <fragmenstein_error>  (245) 
['']

>  <HIPPO Compound ID>  (245) 
6749

>  <alias>  (245) 
None

>  <energy_score>  (245) 
-29.894546

>  <exports>  (245) 
['/opt/xchem-fragalysis-2/maxwin/BulkDock/OUTPUTS/RdRp_knitwork_thumb_site_2_impure_split4000_batch000_211013.sdf']

>  <fragmenstein_outcome>  (245) 
['acceptable']

>  <fragmenstein_mode>  (245) 
['expansion']

>  <HIPPO Pose ID>  (245) 
51911

>  <name>  (245) 
ZXIOPGFTZPIVNB-LLVKDONJSA-N

>  <fragmenstein_runtime>  (245) 
[1.4545605182647705]

>  <csv_name>  (245) 
RdRp_knitwork_thumb_site_2_impure_split4000_batch000.csv

>  <inchikey>  (245) 
ZXIOPGFTZPIVNB-LLVKDONJSA-N

>  <original SMILES>  (245) 
CCCOCC[C@@H](O)c1ccccn1

>  <scratch_subdir>  (245) 
['/opt/xchem-fragalysis-2/maxwin/BulkDock/SCRATCH/211013/C6749-P50']

>  <tags>  (245) 
['Fragmenstein placed']

>  <distance_score>  (245) 
0.675852

>  <original ID>  (245) 
ZXIOPGFTZPIVNB-LLVKDONJSA-N

>  <ref_mols>  (245) 
d0174a,d0615a

>  <SLURM_JOB_ID>  (245) 
211013

>  <ref_pdb>  (245) 
d0615a

$$$$
51918
     RDKit          3D

 14 14  0  0  0  0  0  0  0  0999 V2000
  -14.8091  -68.7510  -22.6327 C   0  0  0  0  0  0  0  0  0  0  0  0
  -14.6369  -69.7227  -21.6134 O   0  0  0  0  0  0  0  0  0  0  0  0
  -13.6362  -69.3366  -20.6803 C   0  0  0  0  0  0  0  0  0  0  0  0
  -13.0215  -70.5970  -20.1168 C   0  0  0  0  0  0  0  0  0  0  0  0
  -13.4256  -71.0455  -19.0305 O   0  0  0  0  0  0  0  0  0  0  0  0
  -11.9428  -71.3426  -20.9350 C   0  0  2  0  0  0  0  0  0  0  0  0
  -11.8503  -70.9202  -22.4060 C   0  0  0  0  0  0  0  0  0  0  0  0
  -12.3475  -72.7336  -20.9649 O   0  0  0  0  0  0  0  0  0  0  0  0
  -10.5826  -71.2442  -20.2351 C   0  0  0  0  0  0  0  0  0  0  0  0
  -10.3396  -71.9611  -19.0589 C   0  0  0  0  0  0  0  0  0  0  0  0
   -9.0729  -71.9275  -18.4811 C   0  0  0  0  0  0  0  0  0  0  0  0
   -8.0708  -71.1860  -19.0880 C   0  0  0  0  0  0  0  0  0  0  0  0
   -8.3879  -70.4819  -20.2360 C   0  0  0  0  0  0  0  0  0  0  0  0
   -9.6169  -70.4738  -20.8021 N   0  0  0  0  0  0  0  0  0  0  0  0
  1  2  1  0
  2  3  1  0
  3  4  1  0
  4  5  2  0
  4  6  1  0
  6  7  1  6
  6  8  1  0
  6  9  1  0
  9 10  2  0
 10 11  1  0
 11 12  2  0
 12 13  1  0
 13 14  2  0
 14  9  1  0
M  END
>  <SLURM_JOB_NAME>  (246) 
BulkDock.place:Flavi_NS5_RdRp:RdRp_knitwork_thumb_site_2_impure_split4000_batch000

>  <fragmenstein_error>  (246) 
['']

>  <HIPPO Compound ID>  (246) 
6780

>  <alias>  (246) 
None

>  <energy_score>  (246) 
-62.375033

>  <exports>  (246) 
['/opt/xchem-fragalysis-2/maxwin/BulkDock/OUTPUTS/RdRp_knitwork_thumb_site_2_impure_split4000_batch000_211013.sdf']

>  <fragmenstein_outcome>  (246) 
['acceptable']

>  <fragmenstein_mode>  (246) 
['expansion']

>  <HIPPO Pose ID>  (246) 
51918

>  <name>  (246) 
KLFKEJZXMRANFB-SNVBAGLBSA-N

>  <fragmenstein_runtime>  (246) 
[1.5561251640319824]

>  <csv_name>  (246) 
RdRp_knitwork_thumb_site_2_impure_split4000_batch000.csv

>  <inchikey>  (246) 
KLFKEJZXMRANFB-SNVBAGLBSA-N

>  <original SMILES>  (246) 
COCC(=O)[C@](C)(O)c1ccccn1

>  <scratch_subdir>  (246) 
['/opt/xchem-fragalysis-2/maxwin/BulkDock/SCRATCH/211013/C6780-P17']

>  <tags>  (246) 
['Fragmenstein placed']

>  <distance_score>  (246) 
0.897342

>  <original ID>  (246) 
KLFKEJZXMRANFB-SNVBAGLBSA-N

>  <ref_mols>  (246) 
d0174a,d0615a

>  <SLURM_JOB_ID>  (246) 
211013

>  <ref_pdb>  (246) 
d0174a

$$$$
51919
     RDKit          3D

 14 14  0  0  0  0  0  0  0  0999 V2000
  -14.9597  -68.9759  -22.6777 C   0  0  0  0  0  0  0  0  0  0  0  0
  -14.5817  -69.9338  -21.6990 O   0  0  0  0  0  0  0  0  0  0  0  0
  -13.7015  -69.3727  -20.7362 C   0  0  0  0  0  0  0  0  0  0  0  0
  -12.8819  -70.4674  -20.0851 C   0  0  0  0  0  0  0  0  0  0  0  0
  -13.0526  -70.7085  -18.8821 O   0  0  0  0  0  0  0  0  0  0  0  0
  -11.8762  -71.2647  -20.9584 C   0  0  2  0  0  0  0  0  0  0  0  0
  -11.7638  -70.8025  -22.4172 C   0  0  0  0  0  0  0  0  0  0  0  0
  -12.3376  -72.6324  -21.0060 O   0  0  0  0  0  0  0  0  0  0  0  0
  -10.5002  -71.2351  -20.2779 C   0  0  0  0  0  0  0  0  0  0  0  0
  -10.2565  -72.0320  -19.1556 C   0  0  0  0  0  0  0  0  0  0  0  0
   -8.9955  -72.0240  -18.5667 C   0  0  0  0  0  0  0  0  0  0  0  0
   -7.9981  -71.2302  -19.1137 C   0  0  0  0  0  0  0  0  0  0  0  0
   -8.3137  -70.4563  -20.2171 C   0  0  0  0  0  0  0  0  0  0  0  0
   -9.5379  -70.4213  -20.7915 N   0  0  0  0  0  0  0  0  0  0  0  0
  1  2  1  0
  2  3  1  0
  3  4  1  0
  4  5  2  0
  4  6  1  0
  6  7  1  6
  6  8  1  0
  6  9  1  0
  9 10  2  0
 10 11  1  0
 11 12  2  0
 12 13  1  0
 13 14  2  0
 14  9  1  0
M  END
>  <SLURM_JOB_NAME>  (247) 
BulkDock.place:Flavi_NS5_RdRp:RdRp_knitwork_thumb_site_2_impure_split4000_batch000

>  <fragmenstein_error>  (247) 
['']

>  <HIPPO Compound ID>  (247) 
6780

>  <alias>  (247) 
None

>  <energy_score>  (247) 
-61.805579

>  <exports>  (247) 
['/opt/xchem-fragalysis-2/maxwin/BulkDock/OUTPUTS/RdRp_knitwork_thumb_site_2_impure_split4000_batch000_211013.sdf']

>  <fragmenstein_outcome>  (247) 
['acceptable']

>  <fragmenstein_mode>  (247) 
['expansion']

>  <HIPPO Pose ID>  (247) 
51919

>  <name>  (247) 
KLFKEJZXMRANFB-SNVBAGLBSA-N

>  <fragmenstein_runtime>  (247) 
[1.6671836376190186]

>  <csv_name>  (247) 
RdRp_knitwork_thumb_site_2_impure_split4000_batch000.csv

>  <inchikey>  (247) 
KLFKEJZXMRANFB-SNVBAGLBSA-N

>  <original SMILES>  (247) 
COCC(=O)[C@](C)(O)c1ccccn1

>  <scratch_subdir>  (247) 
['/opt/xchem-fragalysis-2/maxwin/BulkDock/SCRATCH/211013/C6780-P50']

>  <tags>  (247) 
['Fragmenstein placed']

>  <distance_score>  (247) 
0.86951

>  <original ID>  (247) 
KLFKEJZXMRANFB-SNVBAGLBSA-N

>  <ref_mols>  (247) 
d0174a,d0615a

>  <SLURM_JOB_ID>  (247) 
211013

>  <ref_pdb>  (247) 
d0615a

$$$$
51924
     RDKit          3D

 13 13  0  0  0  0  0  0  0  0999 V2000
  -14.8333  -68.9860  -20.7038 C   0  0  0  0  0  0  0  0  0  0  0  0
  -13.5499  -69.4822  -21.0790 O   0  0  0  0  0  0  0  0  0  0  0  0
  -13.1028  -70.5600  -20.3797 C   0  0  0  0  0  0  0  0  0  0  0  0
  -13.6353  -70.9668  -19.3454 O   0  0  0  0  0  0  0  0  0  0  0  0
  -11.9193  -71.2718  -21.0808 C   0  0  2  0  0  0  0  0  0  0  0  0
  -11.7181  -70.7760  -22.5190 C   0  0  0  0  0  0  0  0  0  0  0  0
  -12.3038  -72.6639  -21.2154 O   0  0  0  0  0  0  0  0  0  0  0  0
  -10.6325  -71.1888  -20.2518 C   0  0  0  0  0  0  0  0  0  0  0  0
  -10.5505  -71.7899  -18.9918 C   0  0  0  0  0  0  0  0  0  0  0  0
   -9.3316  -71.8053  -18.3146 C   0  0  0  0  0  0  0  0  0  0  0  0
   -8.2172  -71.2248  -18.9028 C   0  0  0  0  0  0  0  0  0  0  0  0
   -8.3743  -70.6265  -20.1388 C   0  0  0  0  0  0  0  0  0  0  0  0
   -9.5482  -70.5846  -20.8081 N   0  0  0  0  0  0  0  0  0  0  0  0
  1  2  1  0
  2  3  1  0
  3  4  2  0
  3  5  1  0
  5  6  1  6
  5  7  1  0
  5  8  1  0
  8  9  2  0
  9 10  1  0
 10 11  2  0
 11 12  1  0
 12 13  2  0
 13  8  1  0
M  END
>  <SLURM_JOB_NAME>  (248) 
BulkDock.place:Flavi_NS5_RdRp:RdRp_knitwork_thumb_site_2_impure_split4000_batch000

>  <fragmenstein_error>  (248) 
['']

>  <HIPPO Compound ID>  (248) 
6847

>  <alias>  (248) 
None

>  <energy_score>  (248) 
-24.948697

>  <exports>  (248) 
['/opt/xchem-fragalysis-2/maxwin/BulkDock/OUTPUTS/RdRp_knitwork_thumb_site_2_impure_split4000_batch000_211013.sdf']

>  <fragmenstein_outcome>  (248) 
['acceptable']

>  <fragmenstein_mode>  (248) 
['expansion']

>  <HIPPO Pose ID>  (248) 
51924

>  <name>  (248) 
NNCWNFDMEUWHDI-SECBINFHSA-N

>  <fragmenstein_runtime>  (248) 
[1.7556297779083252]

>  <csv_name>  (248) 
RdRp_knitwork_thumb_site_2_impure_split4000_batch000.csv

>  <inchikey>  (248) 
NNCWNFDMEUWHDI-SECBINFHSA-N

>  <original SMILES>  (248) 
COC(=O)[C@](C)(O)c1ccccn1

>  <scratch_subdir>  (248) 
['/opt/xchem-fragalysis-2/maxwin/BulkDock/SCRATCH/211013/C6847-P17']

>  <tags>  (248) 
['Fragmenstein placed']

>  <distance_score>  (248) 
0.970458

>  <original ID>  (248) 
NNCWNFDMEUWHDI-SECBINFHSA-N

>  <ref_mols>  (248) 
d0174a,d0615a

>  <SLURM_JOB_ID>  (248) 
211013

>  <ref_pdb>  (248) 
d0174a

$$$$
51926
     RDKit          3D

 13 13  0  0  0  0  0  0  0  0999 V2000
  -14.9168  -69.1191  -20.5841 C   0  0  0  0  0  0  0  0  0  0  0  0
  -13.6196  -69.5516  -20.9917 O   0  0  0  0  0  0  0  0  0  0  0  0
  -13.1241  -70.6421  -20.3450 C   0  0  0  0  0  0  0  0  0  0  0  0
  -13.6224  -71.1123  -19.3204 O   0  0  0  0  0  0  0  0  0  0  0  0
  -11.9230  -71.2772  -21.0899 C   0  0  2  0  0  0  0  0  0  0  0  0
  -11.7709  -70.7208  -22.5116 C   0  0  0  0  0  0  0  0  0  0  0  0
  -12.2501  -72.6785  -21.2717 O   0  0  0  0  0  0  0  0  0  0  0  0
  -10.6293  -71.1687  -20.2737 C   0  0  0  0  0  0  0  0  0  0  0  0
  -10.5183  -71.7747  -19.0179 C   0  0  0  0  0  0  0  0  0  0  0  0
   -9.2911  -71.7677  -18.3556 C   0  0  0  0  0  0  0  0  0  0  0  0
   -8.1970  -71.1598  -18.9537 C   0  0  0  0  0  0  0  0  0  0  0  0
   -8.3825  -70.5580  -20.1841 C   0  0  0  0  0  0  0  0  0  0  0  0
   -9.5648  -70.5395  -20.8395 N   0  0  0  0  0  0  0  0  0  0  0  0
  1  2  1  0
  2  3  1  0
  3  4  2  0
  3  5  1  0
  5  6  1  6
  5  7  1  0
  5  8  1  0
  8  9  2  0
  9 10  1  0
 10 11  2  0
 11 12  1  0
 12 13  2  0
 13  8  1  0
M  END
>  <SLURM_JOB_NAME>  (249) 
BulkDock.place:Flavi_NS5_RdRp:RdRp_knitwork_thumb_site_2_impure_split4000_batch000

>  <fragmenstein_error>  (249) 
['']

>  <HIPPO Compound ID>  (249) 
6847

>  <alias>  (249) 
None

>  <energy_score>  (249) 
-24.872105

>  <exports>  (249) 
['/opt/xchem-fragalysis-2/maxwin/BulkDock/OUTPUTS/RdRp_knitwork_thumb_site_2_impure_split4000_batch000_211013.sdf']

>  <fragmenstein_outcome>  (249) 
['acceptable']

>  <fragmenstein_mode>  (249) 
['expansion']

>  <HIPPO Pose ID>  (249) 
51926

>  <name>  (249) 
NNCWNFDMEUWHDI-SECBINFHSA-N

>  <fragmenstein_runtime>  (249) 
[1.4895637035369873]

>  <csv_name>  (249) 
RdRp_knitwork_thumb_site_2_impure_split4000_batch000.csv

>  <inchikey>  (249) 
NNCWNFDMEUWHDI-SECBINFHSA-N

>  <original SMILES>  (249) 
COC(=O)[C@](C)(O)c1ccccn1

>  <scratch_subdir>  (249) 
['/opt/xchem-fragalysis-2/maxwin/BulkDock/SCRATCH/211013/C6847-P50']

>  <tags>  (249) 
['Fragmenstein placed']

>  <distance_score>  (249) 
0.949768

>  <original ID>  (249) 
NNCWNFDMEUWHDI-SECBINFHSA-N

>  <ref_mols>  (249) 
d0174a,d0615a

>  <SLURM_JOB_ID>  (249) 
211013

>  <ref_pdb>  (249) 
d0615a

$$$$
51927
     RDKit          3D

 14 14  0  0  0  0  0  0  0  0999 V2000
  -13.9596  -69.7511  -23.3750 C   0  0  0  0  0  0  0  0  0  0  0  0
  -14.7590  -70.0087  -22.1371 C   0  0  0  0  0  0  0  0  0  0  0  0
  -16.2431  -70.0650  -22.3814 C   0  0  0  0  0  0  0  0  0  0  0  0
  -14.2737  -70.1813  -20.8950 C   0  0  0  0  0  0  0  0  0  0  0  0
  -12.9004  -70.3486  -20.3258 C   0  0  0  0  0  0  0  0  0  0  0  0
  -12.8450  -70.2319  -19.0947 O   0  0  0  0  0  0  0  0  0  0  0  0
  -11.7052  -70.8452  -21.1913 C   0  0  1  0  0  0  0  0  0  0  0  0
  -11.3693  -70.0330  -22.3039 O   0  0  0  0  0  0  0  0  0  0  0  0
  -10.4457  -71.1171  -20.3715 C   0  0  0  0  0  0  0  0  0  0  0  0
  -10.4674  -72.0805  -19.3537 C   0  0  0  0  0  0  0  0  0  0  0  0
   -9.3156  -72.3144  -18.6177 C   0  0  0  0  0  0  0  0  0  0  0  0
   -8.1461  -71.6799  -18.8312 N   0  0  0  0  0  0  0  0  0  0  0  0
   -8.1311  -70.7631  -19.8211 C   0  0  0  0  0  0  0  0  0  0  0  0
   -9.2361  -70.4455  -20.5987 C   0  0  0  0  0  0  0  0  0  0  0  0
  1  2  1  0
  2  3  1  0
  2  4  2  3
  4  5  1  0
  5  6  2  0
  5  7  1  0
  7  8  1  6
  7  9  1  0
  9 10  2  0
 10 11  1  0
 11 12  2  0
 12 13  1  0
 13 14  2  0
 14  9  1  0
M  END
>  <SLURM_JOB_NAME>  (250) 
BulkDock.place:Flavi_NS5_RdRp:RdRp_knitwork_thumb_site_2_impure_split4000_batch000

>  <fragmenstein_error>  (250) 
['']

>  <HIPPO Compound ID>  (250) 
6848

>  <alias>  (250) 
None

>  <energy_score>  (250) 
-25.411991

>  <exports>  (250) 
['/opt/xchem-fragalysis-2/maxwin/BulkDock/OUTPUTS/RdRp_knitwork_thumb_site_2_impure_split4000_batch000_211013.sdf']

>  <fragmenstein_outcome>  (250) 
['acceptable']

>  <fragmenstein_mode>  (250) 
['expansion']

>  <HIPPO Pose ID>  (250) 
51927

>  <name>  (250) 
RHGWUCWFIVQRKA-NSHDSACASA-N

>  <fragmenstein_runtime>  (250) 
[2.256192445755005]

>  <csv_name>  (250) 
RdRp_knitwork_thumb_site_2_impure_split4000_batch000.csv

>  <inchikey>  (250) 
RHGWUCWFIVQRKA-NSHDSACASA-N

>  <original SMILES>  (250) 
CC(C)=CC(=O)[C@@H](O)c1ccncc1

>  <scratch_subdir>  (250) 
['/opt/xchem-fragalysis-2/maxwin/BulkDock/SCRATCH/211013/C6848-P17']

>  <tags>  (250) 
['Fragmenstein placed']

>  <distance_score>  (250) 
0.712305

>  <original ID>  (250) 
RHGWUCWFIVQRKA-NSHDSACASA-N

>  <ref_mols>  (250) 
d0174a,d0615a

>  <SLURM_JOB_ID>  (250) 
211013

>  <ref_pdb>  (250) 
d0174a

$$$$
51928
     RDKit          3D

 14 14  0  0  0  0  0  0  0  0999 V2000
  -14.8424  -69.8921  -22.7018 C   0  0  0  0  0  0  0  0  0  0  0  0
  -14.4011  -69.2088  -21.4383 C   0  0  0  0  0  0  0  0  0  0  0  0
  -15.0765  -67.8980  -21.1724 C   0  0  0  0  0  0  0  0  0  0  0  0
  -13.4783  -69.6761  -20.5797 C   0  0  0  0  0  0  0  0  0  0  0  0
  -12.8526  -71.0066  -20.7587 C   0  0  0  0  0  0  0  0  0  0  0  0
  -13.4330  -71.9906  -20.2962 O   0  0  0  0  0  0  0  0  0  0  0  0
  -11.4858  -71.0862  -21.4654 C   0  0  1  0  0  0  0  0  0  0  0  0
  -11.3173  -70.0454  -22.4280 O   0  0  0  0  0  0  0  0  0  0  0  0
  -10.3158  -71.1180  -20.4966 C   0  0  0  0  0  0  0  0  0  0  0  0
  -10.3732  -71.8767  -19.3185 C   0  0  0  0  0  0  0  0  0  0  0  0
   -9.2625  -71.9279  -18.4895 C   0  0  0  0  0  0  0  0  0  0  0  0
   -8.1032  -71.2935  -18.7492 N   0  0  0  0  0  0  0  0  0  0  0  0
   -8.0466  -70.5925  -19.9024 C   0  0  0  0  0  0  0  0  0  0  0  0
   -9.1066  -70.4747  -20.7897 C   0  0  0  0  0  0  0  0  0  0  0  0
  1  2  1  0
  2  3  1  0
  2  4  2  3
  4  5  1  0
  5  6  2  0
  5  7  1  0
  7  8  1  6
  7  9  1  0
  9 10  2  0
 10 11  1  0
 11 12  2  0
 12 13  1  0
 13 14  2  0
 14  9  1  0
M  END
>  <SLURM_JOB_NAME>  (251) 
BulkDock.place:Flavi_NS5_RdRp:RdRp_knitwork_thumb_site_2_impure_split4000_batch000

>  <fragmenstein_error>  (251) 
['']

>  <HIPPO Compound ID>  (251) 
6848

>  <alias>  (251) 
None

>  <energy_score>  (251) 
-35.416833

>  <exports>  (251) 
['/opt/xchem-fragalysis-2/maxwin/BulkDock/OUTPUTS/RdRp_knitwork_thumb_site_2_impure_split4000_batch000_211013.sdf']

>  <fragmenstein_outcome>  (251) 
['acceptable']

>  <fragmenstein_mode>  (251) 
['expansion']

>  <HIPPO Pose ID>  (251) 
51928

>  <name>  (251) 
RHGWUCWFIVQRKA-NSHDSACASA-N

>  <fragmenstein_runtime>  (251) 
[2.237628936767578]

>  <csv_name>  (251) 
RdRp_knitwork_thumb_site_2_impure_split4000_batch000.csv

>  <inchikey>  (251) 
RHGWUCWFIVQRKA-NSHDSACASA-N

>  <original SMILES>  (251) 
CC(C)=CC(=O)[C@@H](O)c1ccncc1

>  <scratch_subdir>  (251) 
['/opt/xchem-fragalysis-2/maxwin/BulkDock/SCRATCH/211013/C6848-P50']

>  <tags>  (251) 
['Fragmenstein placed']

>  <distance_score>  (251) 
0.827417

>  <original ID>  (251) 
RHGWUCWFIVQRKA-NSHDSACASA-N

>  <ref_mols>  (251) 
d0174a,d0615a

>  <SLURM_JOB_ID>  (251) 
211013

>  <ref_pdb>  (251) 
d0615a

$$$$
51937
     RDKit          3D

 23 23  0  0  0  0  0  0  0  0999 V2000
  -18.2625  -68.3348  -27.5505 C   0  0  0  0  0  0  0  0  0  0  0  0
  -17.5049  -69.4384  -27.0533 O   0  0  0  0  0  0  0  0  0  0  0  0
  -17.4189  -69.5161  -25.7011 C   0  0  0  0  0  0  0  0  0  0  0  0
  -17.9126  -68.7239  -24.9054 O   0  0  0  0  0  0  0  0  0  0  0  0
  -16.5914  -70.7019  -25.2904 C   0  0  0  0  0  0  0  0  0  0  0  0
  -15.1412  -70.3582  -24.9816 C   0  0  0  0  0  0  0  0  0  0  0  0
  -14.9160  -69.5723  -23.6838 C   0  0  0  0  0  0  0  0  0  0  0  0
  -15.3508  -70.3062  -22.4222 C   0  0  0  0  0  0  0  0  0  0  0  0
  -15.1047  -69.4992  -21.1567 C   0  0  0  0  0  0  0  0  0  0  0  0
  -13.6484  -69.8853  -20.1851 S   0  0  0  0  0  0  0  0  0  0  0  0
  -12.6872  -68.8287  -20.3589 O   0  0  0  0  0  0  0  0  0  0  0  0
  -14.1265  -70.2515  -18.8615 O   0  0  0  0  0  0  0  0  0  0  0  0
  -13.0319  -71.3067  -20.8033 N   0  0  0  0  0  0  0  0  0  0  0  0
  -11.5871  -71.4136  -21.2412 C   0  0  2  0  0  0  0  0  0  0  0  0
  -10.5124  -71.2070  -20.1629 C   0  0  0  0  0  0  0  0  0  0  0  0
  -10.7874  -71.4154  -18.8114 C   0  0  0  0  0  0  0  0  0  0  0  0
   -9.7374  -71.4601  -17.8911 C   0  0  0  0  0  0  0  0  0  0  0  0
   -8.4304  -71.3058  -18.3296 C   0  0  0  0  0  0  0  0  0  0  0  0
   -8.2266  -71.0998  -19.6759 C   0  0  0  0  0  0  0  0  0  0  0  0
   -9.2282  -71.0708  -20.5778 N   0  0  0  0  0  0  0  0  0  0  0  0
  -11.4357  -70.7617  -22.6520 C   0  0  0  0  0  0  0  0  0  0  0  0
  -10.0133  -70.4994  -23.1423 C   0  0  0  0  0  0  0  0  0  0  0  0
  -12.0782  -71.6861  -23.7035 C   0  0  0  0  0  0  0  0  0  0  0  0
  1  2  1  0
  2  3  1  0
  3  4  2  0
  3  5  1  0
  5  6  1  0
  6  7  1  0
  7  8  1  0
  8  9  1  0
  9 10  1  0
 10 11  2  0
 10 12  2  0
 10 13  1  0
 14 13  1  1
 14 15  1  0
 15 16  2  0
 16 17  1  0
 17 18  2  0
 18 19  1  0
 19 20  2  0
 14 21  1  0
 21 22  1  0
 21 23  1  0
 20 15  1  0
M  END
>  <SLURM_JOB_NAME>  (252) 
BulkDock.place:Flavi_NS5_RdRp:RdRp_knitwork_thumb_site_2_impure_split4000_batch000

>  <fragmenstein_error>  (252) 
['']

>  <HIPPO Compound ID>  (252) 
6861

>  <alias>  (252) 
None

>  <energy_score>  (252) 
-68.015227

>  <exports>  (252) 
['/opt/xchem-fragalysis-2/maxwin/BulkDock/OUTPUTS/RdRp_knitwork_thumb_site_2_impure_split4000_batch000_211013.sdf']

>  <fragmenstein_outcome>  (252) 
['acceptable']

>  <fragmenstein_mode>  (252) 
['expansion']

>  <HIPPO Pose ID>  (252) 
51937

>  <name>  (252) 
OZVDFHQDQPHTDA-INIZCTEOSA-N

>  <fragmenstein_runtime>  (252) 
[7.8385913372039795]

>  <csv_name>  (252) 
RdRp_knitwork_thumb_site_2_impure_split4000_batch000.csv

>  <inchikey>  (252) 
OZVDFHQDQPHTDA-INIZCTEOSA-N

>  <original SMILES>  (252) 
COC(=O)CCCCCS(=O)(=O)N[C@H](c1ccccn1)C(C)C

>  <scratch_subdir>  (252) 
['/opt/xchem-fragalysis-2/maxwin/BulkDock/SCRATCH/211013/C6861-P17']

>  <tags>  (252) 
['Fragmenstein placed']

>  <distance_score>  (252) 
0.74661

>  <original ID>  (252) 
OZVDFHQDQPHTDA-INIZCTEOSA-N

>  <ref_mols>  (252) 
d0174a,d0615a

>  <SLURM_JOB_ID>  (252) 
211013

>  <ref_pdb>  (252) 
d0174a

$$$$
51940
     RDKit          3D

 23 23  0  0  0  0  0  0  0  0999 V2000
  -18.2193  -69.0531  -27.7427 C   0  0  0  0  0  0  0  0  0  0  0  0
  -17.2508  -69.9279  -27.1616 O   0  0  0  0  0  0  0  0  0  0  0  0
  -17.0919  -69.7800  -25.8187 C   0  0  0  0  0  0  0  0  0  0  0  0
  -17.7115  -68.9852  -25.1193 O   0  0  0  0  0  0  0  0  0  0  0  0
  -16.0216  -70.7264  -25.3237 C   0  0  0  0  0  0  0  0  0  0  0  0
  -15.8437  -70.6430  -23.8072 C   0  0  0  0  0  0  0  0  0  0  0  0
  -14.8357  -69.5540  -23.4422 C   0  0  0  0  0  0  0  0  0  0  0  0
  -15.1195  -68.8381  -22.1386 C   0  0  0  0  0  0  0  0  0  0  0  0
  -15.1695  -69.7156  -20.9066 C   0  0  0  0  0  0  0  0  0  0  0  0
  -13.6053  -70.0123  -20.0955 S   0  0  0  0  0  0  0  0  0  0  0  0
  -12.7303  -68.8886  -20.2987 O   0  0  0  0  0  0  0  0  0  0  0  0
  -13.9355  -70.4874  -18.7621 O   0  0  0  0  0  0  0  0  0  0  0  0
  -13.0169  -71.3617  -20.8953 N   0  0  0  0  0  0  0  0  0  0  0  0
  -11.5566  -71.4656  -21.2851 C   0  0  2  0  0  0  0  0  0  0  0  0
  -10.5188  -71.2323  -20.1788 C   0  0  0  0  0  0  0  0  0  0  0  0
  -10.7473  -71.7129  -18.8878 C   0  0  0  0  0  0  0  0  0  0  0  0
   -9.6999  -71.7392  -17.9654 C   0  0  0  0  0  0  0  0  0  0  0  0
   -8.4403  -71.3001  -18.3461 C   0  0  0  0  0  0  0  0  0  0  0  0
   -8.2872  -70.8236  -19.6304 C   0  0  0  0  0  0  0  0  0  0  0  0
   -9.2894  -70.7891  -20.5313 N   0  0  0  0  0  0  0  0  0  0  0  0
  -11.3741  -70.8441  -22.7059 C   0  0  0  0  0  0  0  0  0  0  0  0
   -9.9391  -70.6756  -23.2084 C   0  0  0  0  0  0  0  0  0  0  0  0
  -12.0704  -71.7557  -23.7444 C   0  0  0  0  0  0  0  0  0  0  0  0
  1  2  1  0
  2  3  1  0
  3  4  2  0
  3  5  1  0
  5  6  1  0
  6  7  1  0
  7  8  1  0
  8  9  1  0
  9 10  1  0
 10 11  2  0
 10 12  2  0
 10 13  1  0
 14 13  1  1
 14 15  1  0
 15 16  2  0
 16 17  1  0
 17 18  2  0
 18 19  1  0
 19 20  2  0
 14 21  1  0
 21 22  1  0
 21 23  1  0
 20 15  1  0
M  END
>  <SLURM_JOB_NAME>  (253) 
BulkDock.place:Flavi_NS5_RdRp:RdRp_knitwork_thumb_site_2_impure_split4000_batch000

>  <fragmenstein_error>  (253) 
['']

>  <HIPPO Compound ID>  (253) 
6861

>  <alias>  (253) 
None

>  <energy_score>  (253) 
-68.865858

>  <exports>  (253) 
['/opt/xchem-fragalysis-2/maxwin/BulkDock/OUTPUTS/RdRp_knitwork_thumb_site_2_impure_split4000_batch000_211013.sdf']

>  <fragmenstein_outcome>  (253) 
['acceptable']

>  <fragmenstein_mode>  (253) 
['expansion']

>  <HIPPO Pose ID>  (253) 
51940

>  <name>  (253) 
OZVDFHQDQPHTDA-INIZCTEOSA-N

>  <fragmenstein_runtime>  (253) 
[9.00593876838684]

>  <csv_name>  (253) 
RdRp_knitwork_thumb_site_2_impure_split4000_batch000.csv

>  <inchikey>  (253) 
OZVDFHQDQPHTDA-INIZCTEOSA-N

>  <original SMILES>  (253) 
COC(=O)CCCCCS(=O)(=O)N[C@H](c1ccccn1)C(C)C

>  <scratch_subdir>  (253) 
['/opt/xchem-fragalysis-2/maxwin/BulkDock/SCRATCH/211013/C6861-P50']

>  <tags>  (253) 
['Fragmenstein placed']

>  <distance_score>  (253) 
0.982384

>  <original ID>  (253) 
OZVDFHQDQPHTDA-INIZCTEOSA-N

>  <ref_mols>  (253) 
d0174a,d0615a

>  <SLURM_JOB_ID>  (253) 
211013

>  <ref_pdb>  (253) 
d0615a

$$$$
51944
     RDKit          3D

 20 20  0  0  0  0  0  0  0  0999 V2000
  -10.0632  -70.4559  -24.8416 C   0  0  0  0  0  0  0  0  0  0  0  0
  -10.2700  -71.2847  -23.5888 C   0  0  0  0  0  0  0  0  0  0  0  0
  -10.9282  -70.4779  -22.4749 C   0  0  0  0  0  0  0  0  0  0  0  0
  -11.2502  -71.3647  -21.2478 C   0  0  1  0  0  0  0  0  0  0  0  0
  -10.2332  -71.2348  -20.1259 C   0  0  0  0  0  0  0  0  0  0  0  0
  -10.5599  -71.5002  -18.7998 C   0  0  0  0  0  0  0  0  0  0  0  0
   -9.5375  -71.5761  -17.8555 C   0  0  0  0  0  0  0  0  0  0  0  0
   -8.2191  -71.3881  -18.2531 C   0  0  0  0  0  0  0  0  0  0  0  0
   -7.9722  -71.1128  -19.5828 C   0  0  0  0  0  0  0  0  0  0  0  0
   -8.9416  -71.0473  -20.5142 N   0  0  0  0  0  0  0  0  0  0  0  0
  -12.6770  -71.2559  -20.9158 N   0  0  0  0  0  0  0  0  0  0  0  0
  -13.4430  -72.4929  -20.9395 C   0  0  0  0  0  0  0  0  0  0  0  0
  -13.2154  -70.0204  -20.6258 C   0  0  0  0  0  0  0  0  0  0  0  0
  -12.5933  -68.9743  -20.5222 O   0  0  0  0  0  0  0  0  0  0  0  0
  -14.5552  -70.0614  -20.4469 O   0  0  0  0  0  0  0  0  0  0  0  0
  -15.2077  -69.2919  -21.4610 C   0  0  0  0  0  0  0  0  0  0  0  0
  -15.9741  -70.2595  -22.3564 C   0  0  0  0  0  0  0  0  0  0  0  0
  -15.8559  -69.9189  -23.8430 C   0  0  0  0  0  0  0  0  0  0  0  0
  -16.8419  -70.7598  -24.6338 C   0  0  0  0  0  0  0  0  0  0  0  0
  -14.4431  -70.1382  -24.3860 C   0  0  0  0  0  0  0  0  0  0  0  0
  1  2  1  0
  2  3  1  0
  4  3  1  6
  4  5  1  0
  5  6  2  0
  6  7  1  0
  7  8  2  0
  8  9  1  0
  9 10  2  0
  4 11  1  0
 11 12  1  0
 11 13  1  0
 13 14  2  0
 13 15  1  0
 15 16  1  0
 16 17  1  0
 17 18  1  0
 18 19  1  0
 18 20  1  0
 10  5  1  0
M  END
>  <SLURM_JOB_NAME>  (254) 
BulkDock.place:Flavi_NS5_RdRp:RdRp_knitwork_thumb_site_2_impure_split4000_batch000

>  <fragmenstein_error>  (254) 
['']

>  <HIPPO Compound ID>  (254) 
6862

>  <alias>  (254) 
None

>  <energy_score>  (254) 
-25.66154

>  <exports>  (254) 
['/opt/xchem-fragalysis-2/maxwin/BulkDock/OUTPUTS/RdRp_knitwork_thumb_site_2_impure_split4000_batch000_211013.sdf']

>  <fragmenstein_outcome>  (254) 
['acceptable']

>  <fragmenstein_mode>  (254) 
['expansion']

>  <HIPPO Pose ID>  (254) 
51944

>  <name>  (254) 
FDVQWVMRQZJERL-HNNXBMFYSA-N

>  <fragmenstein_runtime>  (254) 
[6.910488605499268]

>  <csv_name>  (254) 
RdRp_knitwork_thumb_site_2_impure_split4000_batch000.csv

>  <inchikey>  (254) 
FDVQWVMRQZJERL-HNNXBMFYSA-N

>  <original SMILES>  (254) 
CCC[C@@H](c1ccccn1)N(C)C(=O)OCCC(C)C

>  <scratch_subdir>  (254) 
['/opt/xchem-fragalysis-2/maxwin/BulkDock/SCRATCH/211013/C6862-P17']

>  <tags>  (254) 
['Fragmenstein placed']

>  <distance_score>  (254) 
0.953275

>  <original ID>  (254) 
FDVQWVMRQZJERL-HNNXBMFYSA-N

>  <ref_mols>  (254) 
d0174a,d0615a

>  <SLURM_JOB_ID>  (254) 
211013

>  <ref_pdb>  (254) 
d0174a

$$$$
51946
     RDKit          3D

 20 20  0  0  0  0  0  0  0  0999 V2000
   -9.8839  -70.4811  -24.7976 C   0  0  0  0  0  0  0  0  0  0  0  0
  -10.1089  -71.3039  -23.5430 C   0  0  0  0  0  0  0  0  0  0  0  0
  -10.9179  -70.5390  -22.4991 C   0  0  0  0  0  0  0  0  0  0  0  0
  -11.2114  -71.3940  -21.2465 C   0  0  1  0  0  0  0  0  0  0  0  0
  -10.2048  -71.1955  -20.1250 C   0  0  0  0  0  0  0  0  0  0  0  0
  -10.5373  -71.3789  -18.7869 C   0  0  0  0  0  0  0  0  0  0  0  0
   -9.5163  -71.4359  -17.8399 C   0  0  0  0  0  0  0  0  0  0  0  0
   -8.1939  -71.3027  -18.2459 C   0  0  0  0  0  0  0  0  0  0  0  0
   -7.9415  -71.0883  -19.5851 C   0  0  0  0  0  0  0  0  0  0  0  0
   -8.9100  -71.0436  -20.5177 N   0  0  0  0  0  0  0  0  0  0  0  0
  -12.6413  -71.3642  -20.9157 N   0  0  0  0  0  0  0  0  0  0  0  0
  -13.2683  -72.6641  -20.7343 C   0  0  0  0  0  0  0  0  0  0  0  0
  -13.3021  -70.1544  -20.7964 C   0  0  0  0  0  0  0  0  0  0  0  0
  -12.7700  -69.0543  -20.8595 O   0  0  0  0  0  0  0  0  0  0  0  0
  -14.6375  -70.3098  -20.5955 O   0  0  0  0  0  0  0  0  0  0  0  0
  -15.4089  -69.2731  -21.2123 C   0  0  0  0  0  0  0  0  0  0  0  0
  -15.3663  -69.3205  -22.7410 C   0  0  0  0  0  0  0  0  0  0  0  0
  -16.1470  -70.4742  -23.3972 C   0  0  0  0  0  0  0  0  0  0  0  0
  -15.5334  -71.8311  -23.0956 C   0  0  0  0  0  0  0  0  0  0  0  0
  -16.1949  -70.2755  -24.9133 C   0  0  0  0  0  0  0  0  0  0  0  0
  1  2  1  0
  2  3  1  0
  4  3  1  6
  4  5  1  0
  5  6  2  0
  6  7  1  0
  7  8  2  0
  8  9  1  0
  9 10  2  0
  4 11  1  0
 11 12  1  0
 11 13  1  0
 13 14  2  0
 13 15  1  0
 15 16  1  0
 16 17  1  0
 17 18  1  0
 18 19  1  0
 18 20  1  0
 10  5  1  0
M  END
>  <SLURM_JOB_NAME>  (255) 
BulkDock.place:Flavi_NS5_RdRp:RdRp_knitwork_thumb_site_2_impure_split4000_batch000

>  <fragmenstein_error>  (255) 
['']

>  <HIPPO Compound ID>  (255) 
6862

>  <alias>  (255) 
None

>  <energy_score>  (255) 
-31.826003

>  <exports>  (255) 
['/opt/xchem-fragalysis-2/maxwin/BulkDock/OUTPUTS/RdRp_knitwork_thumb_site_2_impure_split4000_batch000_211013.sdf']

>  <fragmenstein_outcome>  (255) 
['acceptable']

>  <fragmenstein_mode>  (255) 
['expansion']

>  <HIPPO Pose ID>  (255) 
51946

>  <name>  (255) 
FDVQWVMRQZJERL-HNNXBMFYSA-N

>  <fragmenstein_runtime>  (255) 
[7.5908732414245605]

>  <csv_name>  (255) 
RdRp_knitwork_thumb_site_2_impure_split4000_batch000.csv

>  <inchikey>  (255) 
FDVQWVMRQZJERL-HNNXBMFYSA-N

>  <original SMILES>  (255) 
CCC[C@@H](c1ccccn1)N(C)C(=O)OCCC(C)C

>  <scratch_subdir>  (255) 
['/opt/xchem-fragalysis-2/maxwin/BulkDock/SCRATCH/211013/C6862-P50']

>  <tags>  (255) 
['Fragmenstein placed']

>  <distance_score>  (255) 
0.998066

>  <original ID>  (255) 
FDVQWVMRQZJERL-HNNXBMFYSA-N

>  <ref_mols>  (255) 
d0174a,d0615a

>  <SLURM_JOB_ID>  (255) 
211013

>  <ref_pdb>  (255) 
d0615a

$$$$
51961
     RDKit          3D

 13 13  0  0  0  0  0  0  0  0999 V2000
  -15.3266  -69.5776  -21.1242 C   0  0  0  0  0  0  0  0  0  0  0  0
  -13.8378  -69.8031  -20.1904 S   0  0  0  0  0  0  0  0  0  0  0  0
  -13.1287  -68.5445  -20.2343 O   0  0  0  0  0  0  0  0  0  0  0  0
  -14.2088  -70.3913  -18.9142 O   0  0  0  0  0  0  0  0  0  0  0  0
  -12.9610  -71.0152  -21.1572 C   0  0  0  0  0  0  0  0  0  0  0  0
  -11.5272  -70.6022  -21.4529 C   0  0  2  0  0  0  0  0  0  0  0  0
  -11.1656  -71.2288  -22.6899 O   0  0  0  0  0  0  0  0  0  0  0  0
  -10.4619  -70.9478  -20.4414 C   0  0  0  0  0  0  0  0  0  0  0  0
  -10.7008  -71.5245  -19.1904 C   0  0  0  0  0  0  0  0  0  0  0  0
   -9.6344  -71.8106  -18.3369 C   0  0  0  0  0  0  0  0  0  0  0  0
   -8.3521  -71.4975  -18.7514 C   0  0  0  0  0  0  0  0  0  0  0  0
   -8.0749  -70.9171  -19.9333 N   0  0  0  0  0  0  0  0  0  0  0  0
   -9.1273  -70.6645  -20.7466 C   0  0  0  0  0  0  0  0  0  0  0  0
  1  2  1  0
  2  3  2  0
  2  4  2  0
  2  5  1  0
  5  6  1  0
  6  7  1  6
  6  8  1  0
  8  9  2  0
  9 10  1  0
 10 11  2  0
 11 12  1  0
 12 13  2  0
 13  8  1  0
M  END
>  <SLURM_JOB_NAME>  (256) 
BulkDock.place:Flavi_NS5_RdRp:RdRp_knitwork_thumb_site_2_impure_split4000_batch000

>  <fragmenstein_error>  (256) 
['']

>  <HIPPO Compound ID>  (256) 
6931

>  <alias>  (256) 
None

>  <energy_score>  (256) 
-31.201289

>  <exports>  (256) 
['/opt/xchem-fragalysis-2/maxwin/BulkDock/OUTPUTS/RdRp_knitwork_thumb_site_2_impure_split4000_batch000_211013.sdf']

>  <fragmenstein_outcome>  (256) 
['acceptable']

>  <fragmenstein_mode>  (256) 
['expansion']

>  <HIPPO Pose ID>  (256) 
51961

>  <name>  (256) 
ZYVFKIGPOYVVIB-QMMMGPOBSA-N

>  <fragmenstein_runtime>  (256) 
[1.7952017784118652]

>  <csv_name>  (256) 
RdRp_knitwork_thumb_site_2_impure_split4000_batch000.csv

>  <inchikey>  (256) 
ZYVFKIGPOYVVIB-QMMMGPOBSA-N

>  <original SMILES>  (256) 
CS(=O)(=O)C[C@H](O)c1cccnc1

>  <scratch_subdir>  (256) 
['/opt/xchem-fragalysis-2/maxwin/BulkDock/SCRATCH/211013/C6931-P17']

>  <tags>  (256) 
['Fragmenstein placed']

>  <distance_score>  (256) 
0.676883

>  <original ID>  (256) 
ZYVFKIGPOYVVIB-QMMMGPOBSA-N

>  <ref_mols>  (256) 
d0174a,d0615a

>  <SLURM_JOB_ID>  (256) 
211013

>  <ref_pdb>  (256) 
d0174a

$$$$
51964
     RDKit          3D

 13 13  0  0  0  0  0  0  0  0999 V2000
  -15.4273  -69.5275  -20.9870 C   0  0  0  0  0  0  0  0  0  0  0  0
  -13.9054  -69.7940  -20.1092 S   0  0  0  0  0  0  0  0  0  0  0  0
  -13.1950  -68.5355  -20.1254 O   0  0  0  0  0  0  0  0  0  0  0  0
  -14.2267  -70.4407  -18.8478 O   0  0  0  0  0  0  0  0  0  0  0  0
  -13.0513  -70.9638  -21.1478 C   0  0  0  0  0  0  0  0  0  0  0  0
  -11.6232  -70.5386  -21.4592 C   0  0  2  0  0  0  0  0  0  0  0  0
  -11.2781  -71.1328  -22.7174 O   0  0  0  0  0  0  0  0  0  0  0  0
  -10.5342  -70.8973  -20.4765 C   0  0  0  0  0  0  0  0  0  0  0  0
  -10.7444  -71.5009  -19.2330 C   0  0  0  0  0  0  0  0  0  0  0  0
   -9.6602  -71.7919  -18.4034 C   0  0  0  0  0  0  0  0  0  0  0  0
   -8.3884  -71.4587  -18.8339 C   0  0  0  0  0  0  0  0  0  0  0  0
   -8.1377  -70.8559  -20.0106 N   0  0  0  0  0  0  0  0  0  0  0  0
   -9.2072  -70.5969  -20.7999 C   0  0  0  0  0  0  0  0  0  0  0  0
  1  2  1  0
  2  3  2  0
  2  4  2  0
  2  5  1  0
  5  6  1  0
  6  7  1  6
  6  8  1  0
  8  9  2  0
  9 10  1  0
 10 11  2  0
 11 12  1  0
 12 13  2  0
 13  8  1  0
M  END
>  <SLURM_JOB_NAME>  (257) 
BulkDock.place:Flavi_NS5_RdRp:RdRp_knitwork_thumb_site_2_impure_split4000_batch000

>  <fragmenstein_error>  (257) 
['']

>  <HIPPO Compound ID>  (257) 
6931

>  <alias>  (257) 
None

>  <energy_score>  (257) 
-31.460082

>  <exports>  (257) 
['/opt/xchem-fragalysis-2/maxwin/BulkDock/OUTPUTS/RdRp_knitwork_thumb_site_2_impure_split4000_batch000_211013.sdf']

>  <fragmenstein_outcome>  (257) 
['acceptable']

>  <fragmenstein_mode>  (257) 
['expansion']

>  <HIPPO Pose ID>  (257) 
51964

>  <name>  (257) 
ZYVFKIGPOYVVIB-QMMMGPOBSA-N

>  <fragmenstein_runtime>  (257) 
[1.7045025825500488]

>  <csv_name>  (257) 
RdRp_knitwork_thumb_site_2_impure_split4000_batch000.csv

>  <inchikey>  (257) 
ZYVFKIGPOYVVIB-QMMMGPOBSA-N

>  <original SMILES>  (257) 
CS(=O)(=O)C[C@H](O)c1cccnc1

>  <scratch_subdir>  (257) 
['/opt/xchem-fragalysis-2/maxwin/BulkDock/SCRATCH/211013/C6931-P50']

>  <tags>  (257) 
['Fragmenstein placed']

>  <distance_score>  (257) 
0.70268

>  <original ID>  (257) 
ZYVFKIGPOYVVIB-QMMMGPOBSA-N

>  <ref_mols>  (257) 
d0174a,d0615a

>  <SLURM_JOB_ID>  (257) 
211013

>  <ref_pdb>  (257) 
d0615a

$$$$
51965
     RDKit          3D

 15 15  0  0  0  0  0  0  0  0999 V2000
  -14.1348  -69.7778  -23.1003 C   0  0  0  0  0  0  0  0  0  0  0  0
  -14.6046  -69.4105  -21.6879 C   0  0  0  0  0  0  0  0  0  0  0  0
  -15.7303  -70.3625  -21.2803 C   0  0  0  0  0  0  0  0  0  0  0  0
  -15.1760  -67.9950  -21.7343 C   0  0  0  0  0  0  0  0  0  0  0  0
  -13.4637  -69.3948  -20.6537 C   0  0  0  0  0  0  0  0  0  0  0  0
  -12.8212  -70.7305  -20.3577 C   0  0  0  0  0  0  0  0  0  0  0  0
  -13.2979  -71.4349  -19.4579 O   0  0  0  0  0  0  0  0  0  0  0  0
  -11.5860  -71.1545  -21.1698 C   0  0  1  0  0  0  0  0  0  0  0  0
  -11.3069  -70.2917  -22.2776 O   0  0  0  0  0  0  0  0  0  0  0  0
  -10.3405  -71.2466  -20.3002 C   0  0  0  0  0  0  0  0  0  0  0  0
  -10.2830  -72.0750  -19.1827 C   0  0  0  0  0  0  0  0  0  0  0  0
   -9.0906  -72.1598  -18.4684 C   0  0  0  0  0  0  0  0  0  0  0  0
   -7.9833  -71.4373  -18.8958 C   0  0  0  0  0  0  0  0  0  0  0  0
   -8.1153  -70.6421  -20.0204 C   0  0  0  0  0  0  0  0  0  0  0  0
   -9.2646  -70.5192  -20.7212 N   0  0  0  0  0  0  0  0  0  0  0  0
  1  2  1  0
  2  3  1  0
  2  4  1  0
  2  5  1  0
  5  6  1  0
  6  7  2  0
  6  8  1  0
  8  9  1  6
  8 10  1  0
 10 11  2  0
 11 12  1  0
 12 13  2  0
 13 14  1  0
 14 15  2  0
 15 10  1  0
M  END
>  <SLURM_JOB_NAME>  (258) 
BulkDock.place:Flavi_NS5_RdRp:RdRp_knitwork_thumb_site_2_impure_split4000_batch000

>  <fragmenstein_error>  (258) 
['']

>  <HIPPO Compound ID>  (258) 
6932

>  <alias>  (258) 
None

>  <energy_score>  (258) 
-85.941906

>  <exports>  (258) 
['/opt/xchem-fragalysis-2/maxwin/BulkDock/OUTPUTS/RdRp_knitwork_thumb_site_2_impure_split4000_batch000_211013.sdf']

>  <fragmenstein_outcome>  (258) 
['acceptable']

>  <fragmenstein_mode>  (258) 
['expansion']

>  <HIPPO Pose ID>  (258) 
51965

>  <name>  (258) 
YTNHEXCXWQMBES-NSHDSACASA-N

>  <fragmenstein_runtime>  (258) 
[3.0611391067504883]

>  <csv_name>  (258) 
RdRp_knitwork_thumb_site_2_impure_split4000_batch000.csv

>  <inchikey>  (258) 
YTNHEXCXWQMBES-NSHDSACASA-N

>  <original SMILES>  (258) 
CC(C)(C)CC(=O)[C@@H](O)c1ccccn1

>  <scratch_subdir>  (258) 
['/opt/xchem-fragalysis-2/maxwin/BulkDock/SCRATCH/211013/C6932-P17']

>  <tags>  (258) 
['Fragmenstein placed']

>  <distance_score>  (258) 
0.691284

>  <original ID>  (258) 
YTNHEXCXWQMBES-NSHDSACASA-N

>  <ref_mols>  (258) 
d0174a,d0615a

>  <SLURM_JOB_ID>  (258) 
211013

>  <ref_pdb>  (258) 
d0174a

$$$$
51966
     RDKit          3D

 15 15  0  0  0  0  0  0  0  0999 V2000
  -14.2401  -69.4721  -22.9662 C   0  0  0  0  0  0  0  0  0  0  0  0
  -14.6740  -69.2704  -21.5089 C   0  0  0  0  0  0  0  0  0  0  0  0
  -15.7822  -70.2734  -21.1817 C   0  0  0  0  0  0  0  0  0  0  0  0
  -15.2641  -67.8619  -21.3577 C   0  0  0  0  0  0  0  0  0  0  0  0
  -13.4914  -69.3779  -20.5240 C   0  0  0  0  0  0  0  0  0  0  0  0
  -12.8946  -70.7580  -20.3421 C   0  0  0  0  0  0  0  0  0  0  0  0
  -13.3976  -71.5237  -19.5077 O   0  0  0  0  0  0  0  0  0  0  0  0
  -11.6568  -71.1483  -21.1653 C   0  0  1  0  0  0  0  0  0  0  0  0
  -11.4024  -70.2730  -22.2675 O   0  0  0  0  0  0  0  0  0  0  0  0
  -10.4054  -71.2233  -20.3018 C   0  0  0  0  0  0  0  0  0  0  0  0
  -10.3277  -72.0559  -19.1888 C   0  0  0  0  0  0  0  0  0  0  0  0
   -9.1281  -72.1274  -18.4848 C   0  0  0  0  0  0  0  0  0  0  0  0
   -8.0343  -71.3872  -18.9174 C   0  0  0  0  0  0  0  0  0  0  0  0
   -8.1869  -70.5874  -20.0360 C   0  0  0  0  0  0  0  0  0  0  0  0
   -9.3442  -70.4768  -20.7259 N   0  0  0  0  0  0  0  0  0  0  0  0
  1  2  1  0
  2  3  1  0
  2  4  1  0
  2  5  1  0
  5  6  1  0
  6  7  2  0
  6  8  1  0
  8  9  1  6
  8 10  1  0
 10 11  2  0
 11 12  1  0
 12 13  2  0
 13 14  1  0
 14 15  2  0
 15 10  1  0
M  END
>  <SLURM_JOB_NAME>  (259) 
BulkDock.place:Flavi_NS5_RdRp:RdRp_knitwork_thumb_site_2_impure_split4000_batch000

>  <fragmenstein_error>  (259) 
['']

>  <HIPPO Compound ID>  (259) 
6932

>  <alias>  (259) 
None

>  <energy_score>  (259) 
-86.378623

>  <exports>  (259) 
['/opt/xchem-fragalysis-2/maxwin/BulkDock/OUTPUTS/RdRp_knitwork_thumb_site_2_impure_split4000_batch000_211013.sdf']

>  <fragmenstein_outcome>  (259) 
['acceptable']

>  <fragmenstein_mode>  (259) 
['expansion']

>  <HIPPO Pose ID>  (259) 
51966

>  <name>  (259) 
YTNHEXCXWQMBES-NSHDSACASA-N

>  <fragmenstein_runtime>  (259) 
[2.525054693222046]

>  <csv_name>  (259) 
RdRp_knitwork_thumb_site_2_impure_split4000_batch000.csv

>  <inchikey>  (259) 
YTNHEXCXWQMBES-NSHDSACASA-N

>  <original SMILES>  (259) 
CC(C)(C)CC(=O)[C@@H](O)c1ccccn1

>  <scratch_subdir>  (259) 
['/opt/xchem-fragalysis-2/maxwin/BulkDock/SCRATCH/211013/C6932-P50']

>  <tags>  (259) 
['Fragmenstein placed']

>  <distance_score>  (259) 
0.665116

>  <original ID>  (259) 
YTNHEXCXWQMBES-NSHDSACASA-N

>  <ref_mols>  (259) 
d0174a,d0615a

>  <SLURM_JOB_ID>  (259) 
211013

>  <ref_pdb>  (259) 
d0615a

$$$$
51969
     RDKit          3D

 13 13  0  0  0  0  0  0  0  0999 V2000
  -16.1151  -70.1331  -23.7815 C   0  0  0  0  0  0  0  0  0  0  0  0
  -14.8836  -69.8417  -22.9399 C   0  0  0  0  0  0  0  0  0  0  0  0
  -15.1448  -70.1232  -21.4639 C   0  0  0  0  0  0  0  0  0  0  0  0
  -13.9986  -69.8233  -20.6721 O   0  0  0  0  0  0  0  0  0  0  0  0
  -13.0243  -70.8837  -20.6157 C   0  0  0  0  0  0  0  0  0  0  0  0
  -11.6441  -70.2261  -20.7771 C   0  0  2  0  0  0  0  0  0  0  0  0
  -11.4723  -69.9350  -22.1727 O   0  0  0  0  0  0  0  0  0  0  0  0
  -10.4302  -70.9375  -20.2350 C   0  0  0  0  0  0  0  0  0  0  0  0
  -10.4667  -71.7806  -19.1184 C   0  0  0  0  0  0  0  0  0  0  0  0
   -9.2846  -72.2963  -18.5887 C   0  0  0  0  0  0  0  0  0  0  0  0
   -8.0870  -71.9424  -19.1824 C   0  0  0  0  0  0  0  0  0  0  0  0
   -8.0001  -71.1222  -20.2458 N   0  0  0  0  0  0  0  0  0  0  0  0
   -9.1647  -70.6453  -20.7479 C   0  0  0  0  0  0  0  0  0  0  0  0
  1  2  1  0
  2  3  1  0
  3  4  1  0
  4  5  1  0
  5  6  1  0
  6  7  1  6
  6  8  1  0
  8  9  2  0
  9 10  1  0
 10 11  2  0
 11 12  1  0
 12 13  2  0
 13  8  1  0
M  END
>  <SLURM_JOB_NAME>  (260) 
BulkDock.place:Flavi_NS5_RdRp:RdRp_knitwork_thumb_site_2_impure_split4000_batch000

>  <fragmenstein_error>  (260) 
['']

>  <HIPPO Compound ID>  (260) 
6935

>  <alias>  (260) 
None

>  <energy_score>  (260) 
-15.597914

>  <exports>  (260) 
['/opt/xchem-fragalysis-2/maxwin/BulkDock/OUTPUTS/RdRp_knitwork_thumb_site_2_impure_split4000_batch000_211013.sdf']

>  <fragmenstein_outcome>  (260) 
['acceptable']

>  <fragmenstein_mode>  (260) 
['expansion']

>  <HIPPO Pose ID>  (260) 
51969

>  <name>  (260) 
SSUIBPIVLLKLDS-JTQLQIEISA-N

>  <fragmenstein_runtime>  (260) 
[1.394970417022705]

>  <csv_name>  (260) 
RdRp_knitwork_thumb_site_2_impure_split4000_batch000.csv

>  <inchikey>  (260) 
SSUIBPIVLLKLDS-JTQLQIEISA-N

>  <original SMILES>  (260) 
CCCOC[C@H](O)c1cccnc1

>  <scratch_subdir>  (260) 
['/opt/xchem-fragalysis-2/maxwin/BulkDock/SCRATCH/211013/C6935-P17']

>  <tags>  (260) 
['Fragmenstein placed']

>  <distance_score>  (260) 
0.642345

>  <original ID>  (260) 
SSUIBPIVLLKLDS-JTQLQIEISA-N

>  <ref_mols>  (260) 
d0174a,d0615a

>  <SLURM_JOB_ID>  (260) 
211013

>  <ref_pdb>  (260) 
d0174a

$$$$
51973
     RDKit          3D

 13 13  0  0  0  0  0  0  0  0999 V2000
  -15.8959  -70.0541  -23.7584 C   0  0  0  0  0  0  0  0  0  0  0  0
  -14.7163  -69.7756  -22.8409 C   0  0  0  0  0  0  0  0  0  0  0  0
  -15.0841  -70.0480  -21.3859 C   0  0  0  0  0  0  0  0  0  0  0  0
  -13.9857  -69.8527  -20.4978 O   0  0  0  0  0  0  0  0  0  0  0  0
  -13.0068  -70.9076  -20.5210 C   0  0  0  0  0  0  0  0  0  0  0  0
  -11.6177  -70.3014  -20.8087 C   0  0  2  0  0  0  0  0  0  0  0  0
  -11.4387  -70.1888  -22.2274 O   0  0  0  0  0  0  0  0  0  0  0  0
  -10.3978  -70.9562  -20.2049 C   0  0  0  0  0  0  0  0  0  0  0  0
  -10.4265  -72.0189  -19.2987 C   0  0  0  0  0  0  0  0  0  0  0  0
   -9.2406  -72.4855  -18.7319 C   0  0  0  0  0  0  0  0  0  0  0  0
   -8.0503  -71.8814  -19.0944 C   0  0  0  0  0  0  0  0  0  0  0  0
   -7.9737  -70.8589  -19.9657 N   0  0  0  0  0  0  0  0  0  0  0  0
   -9.1389  -70.4225  -20.4972 C   0  0  0  0  0  0  0  0  0  0  0  0
  1  2  1  0
  2  3  1  0
  3  4  1  0
  4  5  1  0
  5  6  1  0
  6  7  1  6
  6  8  1  0
  8  9  2  0
  9 10  1  0
 10 11  2  0
 11 12  1  0
 12 13  2  0
 13  8  1  0
M  END
>  <SLURM_JOB_NAME>  (261) 
BulkDock.place:Flavi_NS5_RdRp:RdRp_knitwork_thumb_site_2_impure_split4000_batch000

>  <fragmenstein_error>  (261) 
['']

>  <HIPPO Compound ID>  (261) 
6935

>  <alias>  (261) 
None

>  <energy_score>  (261) 
-10.955179

>  <exports>  (261) 
['/opt/xchem-fragalysis-2/maxwin/BulkDock/OUTPUTS/RdRp_knitwork_thumb_site_2_impure_split4000_batch000_211013.sdf']

>  <fragmenstein_outcome>  (261) 
['acceptable']

>  <fragmenstein_mode>  (261) 
['expansion']

>  <HIPPO Pose ID>  (261) 
51973

>  <name>  (261) 
SSUIBPIVLLKLDS-JTQLQIEISA-N

>  <fragmenstein_runtime>  (261) 
[1.6935410499572754]

>  <csv_name>  (261) 
RdRp_knitwork_thumb_site_2_impure_split4000_batch000.csv

>  <inchikey>  (261) 
SSUIBPIVLLKLDS-JTQLQIEISA-N

>  <original SMILES>  (261) 
CCCOC[C@H](O)c1cccnc1

>  <scratch_subdir>  (261) 
['/opt/xchem-fragalysis-2/maxwin/BulkDock/SCRATCH/211013/C6935-P50']

>  <tags>  (261) 
['Fragmenstein placed']

>  <distance_score>  (261) 
0.696576

>  <original ID>  (261) 
SSUIBPIVLLKLDS-JTQLQIEISA-N

>  <ref_mols>  (261) 
d0174a,d0615a

>  <SLURM_JOB_ID>  (261) 
211013

>  <ref_pdb>  (261) 
d0615a

$$$$
51974
     RDKit          3D

 14 14  0  0  0  0  0  0  0  0999 V2000
  -14.1001  -69.3225  -23.0064 C   0  0  0  0  0  0  0  0  0  0  0  0
  -14.5875  -69.5173  -21.5664 C   0  0  0  0  0  0  0  0  0  0  0  0
  -14.8735  -68.1423  -20.9661 C   0  0  0  0  0  0  0  0  0  0  0  0
  -15.8854  -70.3298  -21.5611 C   0  0  0  0  0  0  0  0  0  0  0  0
  -13.5987  -70.0944  -20.6864 O   0  0  0  0  0  0  0  0  0  0  0  0
  -13.0314  -71.3409  -21.0996 C   0  0  0  0  0  0  0  0  0  0  0  0
  -11.5380  -71.2729  -21.4870 C   0  0  1  0  0  0  0  0  0  0  0  0
  -11.3005  -70.2613  -22.4785 O   0  0  0  0  0  0  0  0  0  0  0  0
  -10.4807  -71.1708  -20.4013 C   0  0  0  0  0  0  0  0  0  0  0  0
  -10.6331  -71.7208  -19.1324 C   0  0  0  0  0  0  0  0  0  0  0  0
   -9.5339  -71.7523  -18.2741 C   0  0  0  0  0  0  0  0  0  0  0  0
   -8.3125  -71.2467  -18.7019 C   0  0  0  0  0  0  0  0  0  0  0  0
   -8.2410  -70.7012  -19.9701 C   0  0  0  0  0  0  0  0  0  0  0  0
   -9.2896  -70.6474  -20.8186 N   0  0  0  0  0  0  0  0  0  0  0  0
  1  2  1  0
  2  3  1  0
  2  4  1  0
  2  5  1  0
  5  6  1  0
  6  7  1  0
  7  8  1  6
  7  9  1  0
  9 10  2  0
 10 11  1  0
 11 12  2  0
 12 13  1  0
 13 14  2  0
 14  9  1  0
M  END
>  <SLURM_JOB_NAME>  (262) 
BulkDock.place:Flavi_NS5_RdRp:RdRp_knitwork_thumb_site_2_impure_split4000_batch000

>  <fragmenstein_error>  (262) 
['']

>  <HIPPO Compound ID>  (262) 
6945

>  <alias>  (262) 
None

>  <energy_score>  (262) 
-26.894056

>  <exports>  (262) 
['/opt/xchem-fragalysis-2/maxwin/BulkDock/OUTPUTS/RdRp_knitwork_thumb_site_2_impure_split4000_batch000_211013.sdf']

>  <fragmenstein_outcome>  (262) 
['acceptable']

>  <fragmenstein_mode>  (262) 
['expansion']

>  <HIPPO Pose ID>  (262) 
51974

>  <name>  (262) 
JOUKTDMORMFDAW-SNVBAGLBSA-N

>  <fragmenstein_runtime>  (262) 
[2.3824613094329834]

>  <csv_name>  (262) 
RdRp_knitwork_thumb_site_2_impure_split4000_batch000.csv

>  <inchikey>  (262) 
JOUKTDMORMFDAW-SNVBAGLBSA-N

>  <original SMILES>  (262) 
CC(C)(C)OC[C@@H](O)c1ccccn1

>  <scratch_subdir>  (262) 
['/opt/xchem-fragalysis-2/maxwin/BulkDock/SCRATCH/211013/C6945-P17']

>  <tags>  (262) 
['Fragmenstein placed']

>  <distance_score>  (262) 
0.609534

>  <original ID>  (262) 
JOUKTDMORMFDAW-SNVBAGLBSA-N

>  <ref_mols>  (262) 
d0174a,d0615a

>  <SLURM_JOB_ID>  (262) 
211013

>  <ref_pdb>  (262) 
d0174a

$$$$
51975
     RDKit          3D

 14 14  0  0  0  0  0  0  0  0999 V2000
  -14.2018  -69.3023  -22.9955 C   0  0  0  0  0  0  0  0  0  0  0  0
  -14.6509  -69.4670  -21.5399 C   0  0  0  0  0  0  0  0  0  0  0  0
  -15.0213  -68.0933  -20.9773 C   0  0  0  0  0  0  0  0  0  0  0  0
  -15.9049  -70.3388  -21.4671 C   0  0  0  0  0  0  0  0  0  0  0  0
  -13.6070  -69.9715  -20.6778 O   0  0  0  0  0  0  0  0  0  0  0  0
  -13.0534  -71.2434  -21.0368 C   0  0  0  0  0  0  0  0  0  0  0  0
  -11.5641  -71.2148  -21.4401 C   0  0  1  0  0  0  0  0  0  0  0  0
  -11.3174  -70.2258  -22.4514 O   0  0  0  0  0  0  0  0  0  0  0  0
  -10.4916  -71.1181  -20.3686 C   0  0  0  0  0  0  0  0  0  0  0  0
  -10.6209  -71.6908  -19.1072 C   0  0  0  0  0  0  0  0  0  0  0  0
   -9.5080  -71.7303  -18.2669 C   0  0  0  0  0  0  0  0  0  0  0  0
   -8.2958  -71.2113  -18.7055 C   0  0  0  0  0  0  0  0  0  0  0  0
   -8.2470  -70.6453  -19.9658 C   0  0  0  0  0  0  0  0  0  0  0  0
   -9.3093  -70.5840  -20.7964 N   0  0  0  0  0  0  0  0  0  0  0  0
  1  2  1  0
  2  3  1  0
  2  4  1  0
  2  5  1  0
  5  6  1  0
  6  7  1  0
  7  8  1  6
  7  9  1  0
  9 10  2  0
 10 11  1  0
 11 12  2  0
 12 13  1  0
 13 14  2  0
 14  9  1  0
M  END
>  <SLURM_JOB_NAME>  (263) 
BulkDock.place:Flavi_NS5_RdRp:RdRp_knitwork_thumb_site_2_impure_split4000_batch000

>  <fragmenstein_error>  (263) 
['']

>  <HIPPO Compound ID>  (263) 
6945

>  <alias>  (263) 
None

>  <energy_score>  (263) 
-27.100289

>  <exports>  (263) 
['/opt/xchem-fragalysis-2/maxwin/BulkDock/OUTPUTS/RdRp_knitwork_thumb_site_2_impure_split4000_batch000_211013.sdf']

>  <fragmenstein_outcome>  (263) 
['acceptable']

>  <fragmenstein_mode>  (263) 
['expansion']

>  <HIPPO Pose ID>  (263) 
51975

>  <name>  (263) 
JOUKTDMORMFDAW-SNVBAGLBSA-N

>  <fragmenstein_runtime>  (263) 
[2.2282655239105225]

>  <csv_name>  (263) 
RdRp_knitwork_thumb_site_2_impure_split4000_batch000.csv

>  <inchikey>  (263) 
JOUKTDMORMFDAW-SNVBAGLBSA-N

>  <original SMILES>  (263) 
CC(C)(C)OC[C@@H](O)c1ccccn1

>  <scratch_subdir>  (263) 
['/opt/xchem-fragalysis-2/maxwin/BulkDock/SCRATCH/211013/C6945-P50']

>  <tags>  (263) 
['Fragmenstein placed']

>  <distance_score>  (263) 
0.589841

>  <original ID>  (263) 
JOUKTDMORMFDAW-SNVBAGLBSA-N

>  <ref_mols>  (263) 
d0174a,d0615a

>  <SLURM_JOB_ID>  (263) 
211013

>  <ref_pdb>  (263) 
d0615a

$$$$
51979
     RDKit          3D

 21 21  0  0  0  0  0  0  0  0999 V2000
   -9.9697  -71.0056  -23.2479 C   0  0  0  0  0  0  0  0  0  0  0  0
  -11.1992  -71.3785  -22.4408 C   0  0  0  0  0  0  0  0  0  0  0  0
  -11.2086  -70.8334  -21.0058 C   0  0  1  0  0  0  0  0  0  0  0  0
  -12.4588  -71.2889  -20.3495 N   0  0  0  0  0  0  0  0  0  0  0  0
  -13.6201  -70.1767  -19.9264 S   0  0  0  0  0  0  0  0  0  0  0  0
  -13.1132  -68.8442  -20.1051 O   0  0  0  0  0  0  0  0  0  0  0  0
  -14.1036  -70.5825  -18.6251 O   0  0  0  0  0  0  0  0  0  0  0  0
  -14.9212  -70.6166  -21.0727 C   0  0  0  0  0  0  0  0  0  0  0  0
  -14.7585  -70.2263  -22.5168 C   0  0  0  0  0  0  0  0  0  0  0  0
  -14.3001  -68.8070  -22.7495 C   0  0  0  0  0  0  0  0  0  0  0  0
  -12.9828  -68.7221  -22.4728 F   0  0  0  0  0  0  0  0  0  0  0  0
  -14.3891  -68.6409  -24.0930 F   0  0  0  0  0  0  0  0  0  0  0  0
  -15.1876  -67.8099  -21.9903 C   0  0  0  0  0  0  0  0  0  0  0  0
  -15.4007  -68.1392  -20.6930 F   0  0  0  0  0  0  0  0  0  0  0  0
  -14.7338  -66.5527  -21.9715 F   0  0  0  0  0  0  0  0  0  0  0  0
   -9.9848  -71.2469  -20.2168 C   0  0  0  0  0  0  0  0  0  0  0  0
   -9.8858  -72.4427  -19.4979 C   0  0  0  0  0  0  0  0  0  0  0  0
   -8.7260  -72.7334  -18.7853 C   0  0  0  0  0  0  0  0  0  0  0  0
   -7.6749  -71.8383  -18.8460 C   0  0  0  0  0  0  0  0  0  0  0  0
   -7.7153  -70.6929  -19.5510 N   0  0  0  0  0  0  0  0  0  0  0  0
   -8.8617  -70.4229  -20.2140 C   0  0  0  0  0  0  0  0  0  0  0  0
  1  2  1  0
  3  2  1  6
  3  4  1  0
  4  5  1  0
  5  6  2  0
  5  7  2  0
  5  8  1  0
  8  9  1  0
  9 10  1  0
 10 11  1  0
 10 12  1  0
 10 13  1  0
 13 14  1  0
 13 15  1  0
  3 16  1  0
 16 17  2  0
 17 18  1  0
 18 19  2  0
 19 20  1  0
 20 21  2  0
 21 16  1  0
M  END
>  <SLURM_JOB_NAME>  (264) 
BulkDock.place:Flavi_NS5_RdRp:RdRp_knitwork_thumb_site_2_impure_split4000_batch000

>  <fragmenstein_error>  (264) 
['']

>  <HIPPO Compound ID>  (264) 
6950

>  <alias>  (264) 
None

>  <energy_score>  (264) 
-48.773637

>  <exports>  (264) 
['/opt/xchem-fragalysis-2/maxwin/BulkDock/OUTPUTS/RdRp_knitwork_thumb_site_2_impure_split4000_batch000_211013.sdf']

>  <fragmenstein_outcome>  (264) 
['acceptable']

>  <fragmenstein_mode>  (264) 
['expansion']

>  <HIPPO Pose ID>  (264) 
51979

>  <name>  (264) 
KGPMAROHLPCGEI-SNVBAGLBSA-N

>  <fragmenstein_runtime>  (264) 
[2.6064300537109375]

>  <csv_name>  (264) 
RdRp_knitwork_thumb_site_2_impure_split4000_batch000.csv

>  <inchikey>  (264) 
KGPMAROHLPCGEI-SNVBAGLBSA-N

>  <original SMILES>  (264) 
CC[C@@H](NS(=O)(=O)CCC(F)(F)C(F)F)c1cccnc1

>  <scratch_subdir>  (264) 
['/opt/xchem-fragalysis-2/maxwin/BulkDock/SCRATCH/211013/C6950-P17']

>  <tags>  (264) 
['Fragmenstein placed']

>  <distance_score>  (264) 
0.933491

>  <original ID>  (264) 
KGPMAROHLPCGEI-SNVBAGLBSA-N

>  <ref_mols>  (264) 
d0174a,d0615a

>  <SLURM_JOB_ID>  (264) 
211013

>  <ref_pdb>  (264) 
d0174a

$$$$
51980
     RDKit          3D

 21 21  0  0  0  0  0  0  0  0999 V2000
  -10.1222  -71.1526  -23.6117 C   0  0  0  0  0  0  0  0  0  0  0  0
  -11.3929  -71.4030  -22.8167 C   0  0  0  0  0  0  0  0  0  0  0  0
  -11.4708  -70.6477  -21.4846 C   0  0  1  0  0  0  0  0  0  0  0  0
  -12.8132  -70.8897  -20.9099 N   0  0  0  0  0  0  0  0  0  0  0  0
  -13.6044  -69.6298  -20.1816 S   0  0  0  0  0  0  0  0  0  0  0  0
  -12.6067  -68.7792  -19.5863 O   0  0  0  0  0  0  0  0  0  0  0  0
  -14.6667  -70.1986  -19.3818 O   0  0  0  0  0  0  0  0  0  0  0  0
  -14.3139  -68.7121  -21.5249 C   0  0  0  0  0  0  0  0  0  0  0  0
  -15.5650  -69.2896  -22.1352 C   0  0  0  0  0  0  0  0  0  0  0  0
  -15.2964  -70.3757  -23.1498 C   0  0  0  0  0  0  0  0  0  0  0  0
  -14.3132  -69.9682  -23.9904 F   0  0  0  0  0  0  0  0  0  0  0  0
  -14.8276  -71.4821  -22.5122 F   0  0  0  0  0  0  0  0  0  0  0  0
  -16.5590  -70.7074  -23.9352 C   0  0  0  0  0  0  0  0  0  0  0  0
  -17.0924  -69.5903  -24.5032 F   0  0  0  0  0  0  0  0  0  0  0  0
  -16.2717  -71.5604  -24.9491 F   0  0  0  0  0  0  0  0  0  0  0  0
  -10.3619  -71.0236  -20.5236 C   0  0  0  0  0  0  0  0  0  0  0  0
  -10.5022  -72.0205  -19.5518 C   0  0  0  0  0  0  0  0  0  0  0  0
   -9.4355  -72.3331  -18.7118 C   0  0  0  0  0  0  0  0  0  0  0  0
   -8.2461  -71.6462  -18.8767 C   0  0  0  0  0  0  0  0  0  0  0  0
   -8.0657  -70.6759  -19.7942 N   0  0  0  0  0  0  0  0  0  0  0  0
   -9.1246  -70.3817  -20.5846 C   0  0  0  0  0  0  0  0  0  0  0  0
  1  2  1  0
  3  2  1  6
  3  4  1  0
  4  5  1  0
  5  6  2  0
  5  7  2  0
  5  8  1  0
  8  9  1  0
  9 10  1  0
 10 11  1  0
 10 12  1  0
 10 13  1  0
 13 14  1  0
 13 15  1  0
  3 16  1  0
 16 17  2  0
 17 18  1  0
 18 19  2  0
 19 20  1  0
 20 21  2  0
 21 16  1  0
M  END
>  <SLURM_JOB_NAME>  (265) 
BulkDock.place:Flavi_NS5_RdRp:RdRp_knitwork_thumb_site_2_impure_split4000_batch000

>  <fragmenstein_error>  (265) 
['']

>  <HIPPO Compound ID>  (265) 
6950

>  <alias>  (265) 
None

>  <energy_score>  (265) 
-66.53151

>  <exports>  (265) 
['/opt/xchem-fragalysis-2/maxwin/BulkDock/OUTPUTS/RdRp_knitwork_thumb_site_2_impure_split4000_batch000_211013.sdf']

>  <fragmenstein_outcome>  (265) 
['acceptable']

>  <fragmenstein_mode>  (265) 
['expansion']

>  <HIPPO Pose ID>  (265) 
51980

>  <name>  (265) 
KGPMAROHLPCGEI-SNVBAGLBSA-N

>  <fragmenstein_runtime>  (265) 
[3.2299387454986572]

>  <csv_name>  (265) 
RdRp_knitwork_thumb_site_2_impure_split4000_batch000.csv

>  <inchikey>  (265) 
KGPMAROHLPCGEI-SNVBAGLBSA-N

>  <original SMILES>  (265) 
CC[C@@H](NS(=O)(=O)CCC(F)(F)C(F)F)c1cccnc1

>  <scratch_subdir>  (265) 
['/opt/xchem-fragalysis-2/maxwin/BulkDock/SCRATCH/211013/C6950-P50']

>  <tags>  (265) 
['Fragmenstein placed']

>  <distance_score>  (265) 
0.923923

>  <original ID>  (265) 
KGPMAROHLPCGEI-SNVBAGLBSA-N

>  <ref_mols>  (265) 
d0174a,d0615a

>  <SLURM_JOB_ID>  (265) 
211013

>  <ref_pdb>  (265) 
d0615a

$$$$
54356
     RDKit          3D

 14 14  0  0  0  0  0  0  0  0999 V2000
  -12.8680  -71.0585  -20.7553 C   0  0  0  0  0  0  0  0  0  0  0  0
  -11.4495  -70.9042  -21.3116 C   0  0  0  0  0  0  0  0  0  0  0  0
  -11.1042  -72.0956  -22.2094 C   0  0  0  0  0  0  0  0  0  0  0  0
  -10.4460  -70.6924  -20.1733 C   0  0  1  0  0  0  0  0  0  0  0  0
  -10.1771  -71.8483  -19.3675 N   0  0  0  0  0  0  0  0  0  0  0  0
   -8.8272  -72.0762  -19.2462 C   0  0  0  0  0  0  0  0  0  0  0  0
   -8.3511  -72.9176  -18.5056 O   0  0  0  0  0  0  0  0  0  0  0  0
   -8.1532  -71.2110  -20.0406 N   0  0  0  0  0  0  0  0  0  0  0  0
   -6.7174  -71.1254  -20.1606 C   0  0  2  0  0  0  0  0  0  0  0  0
   -6.2097  -72.3161  -20.5739 F   0  0  0  0  0  0  0  0  0  0  0  0
   -5.9858  -70.7264  -18.8768 C   0  0  0  0  0  0  0  0  0  0  0  0
   -6.4137  -71.4427  -17.7234 O   0  0  0  0  0  0  0  0  0  0  0  0
   -9.0281  -70.3623  -20.6458 C   0  0  0  0  0  0  0  0  0  0  0  0
   -8.7417  -69.4505  -21.4047 O   0  0  0  0  0  0  0  0  0  0  0  0
  1  2  1  0
  2  3  1  0
  4  2  1  6
  4  5  1  0
  5  6  1  0
  6  7  2  0
  6  8  1  0
  8  9  1  0
  9 10  1  1
  9 11  1  0
 11 12  1  0
  8 13  1  0
 13 14  2  0
 13  4  1  0
M  END
>  <SLURM_JOB_NAME>  (266) 
BulkDock.place:Flavi_NS5_RdRp:RdRp_knitwork_thumb_site_2_impure_split4000_batch000

>  <fragmenstein_error>  (266) 
['']

>  <HIPPO Compound ID>  (266) 
4131

>  <alias>  (266) 
None

>  <energy_score>  (266) 
-36.513298

>  <exports>  (266) 
['/opt/xchem-fragalysis-2/maxwin/BulkDock/OUTPUTS/RdRp_knitwork_thumb_site_2_impure_split4000_batch000_211013.sdf']

>  <fragmenstein_outcome>  (266) 
['acceptable']

>  <fragmenstein_mode>  (266) 
['expansion']

>  <HIPPO Pose ID>  (266) 
54356

>  <name>  (266) 
NXUSKSDAWYFZGB-NTSWFWBYSA-N

>  <fragmenstein_runtime>  (266) 
[1.1541624069213867]

>  <csv_name>  (266) 
RdRp_knitwork_thumb_site_2_impure_split4000_batch000.csv

>  <inchikey>  (266) 
NXUSKSDAWYFZGB-NTSWFWBYSA-N

>  <original SMILES>  (266) 
CC(C)[C@H]1NC(=O)N([C@H](F)CO)C1=O

>  <scratch_subdir>  (266) 
['/opt/xchem-fragalysis-2/maxwin/BulkDock/SCRATCH/211013/C4131-P17']

>  <tags>  (266) 
['Fragmenstein placed']

>  <distance_score>  (266) 
0.77588

>  <original ID>  (266) 
NXUSKSDAWYFZGB-NTSWFWBYSA-N

>  <ref_mols>  (266) 
d0174a,d0376a

>  <SLURM_JOB_ID>  (266) 
211013

>  <ref_pdb>  (266) 
d0174a

$$$$
54357
     RDKit          3D

 14 14  0  0  0  0  0  0  0  0999 V2000
  -12.8214  -71.0333  -20.7755 C   0  0  0  0  0  0  0  0  0  0  0  0
  -11.3963  -70.8128  -21.2914 C   0  0  0  0  0  0  0  0  0  0  0  0
  -11.0089  -71.9321  -22.2621 C   0  0  0  0  0  0  0  0  0  0  0  0
  -10.4182  -70.6567  -20.1214 C   0  0  1  0  0  0  0  0  0  0  0  0
  -10.1529  -71.8626  -19.3901 N   0  0  0  0  0  0  0  0  0  0  0  0
   -8.8045  -72.1011  -19.2809 C   0  0  0  0  0  0  0  0  0  0  0  0
   -8.3318  -72.9827  -18.5858 O   0  0  0  0  0  0  0  0  0  0  0  0
   -8.1261  -71.1941  -20.0229 N   0  0  0  0  0  0  0  0  0  0  0  0
   -6.6892  -71.1006  -20.1214 C   0  0  2  0  0  0  0  0  0  0  0  0
   -6.1767  -72.2707  -20.5874 F   0  0  0  0  0  0  0  0  0  0  0  0
   -5.9709  -70.7656  -18.8104 C   0  0  0  0  0  0  0  0  0  0  0  0
   -6.4194  -71.5274  -17.6928 O   0  0  0  0  0  0  0  0  0  0  0  0
   -8.9933  -70.2830  -20.5437 C   0  0  0  0  0  0  0  0  0  0  0  0
   -8.6944  -69.2989  -21.2016 O   0  0  0  0  0  0  0  0  0  0  0  0
  1  2  1  0
  2  3  1  0
  4  2  1  6
  4  5  1  0
  5  6  1  0
  6  7  2  0
  6  8  1  0
  8  9  1  0
  9 10  1  1
  9 11  1  0
 11 12  1  0
  8 13  1  0
 13 14  2  0
 13  4  1  0
M  END
>  <SLURM_JOB_NAME>  (267) 
BulkDock.place:Flavi_NS5_RdRp:RdRp_knitwork_thumb_site_2_impure_split4000_batch000

>  <fragmenstein_error>  (267) 
['']

>  <HIPPO Compound ID>  (267) 
4131

>  <alias>  (267) 
None

>  <energy_score>  (267) 
-36.818112

>  <exports>  (267) 
['/opt/xchem-fragalysis-2/maxwin/BulkDock/OUTPUTS/RdRp_knitwork_thumb_site_2_impure_split4000_batch000_211013.sdf']

>  <fragmenstein_outcome>  (267) 
['acceptable']

>  <fragmenstein_mode>  (267) 
['expansion']

>  <HIPPO Pose ID>  (267) 
54357

>  <name>  (267) 
NXUSKSDAWYFZGB-NTSWFWBYSA-N

>  <fragmenstein_runtime>  (267) 
[1.2995047569274902]

>  <csv_name>  (267) 
RdRp_knitwork_thumb_site_2_impure_split4000_batch000.csv

>  <inchikey>  (267) 
NXUSKSDAWYFZGB-NTSWFWBYSA-N

>  <original SMILES>  (267) 
CC(C)[C@H]1NC(=O)N([C@H](F)CO)C1=O

>  <scratch_subdir>  (267) 
['/opt/xchem-fragalysis-2/maxwin/BulkDock/SCRATCH/211013/C4131-P33']

>  <tags>  (267) 
['Fragmenstein placed']

>  <distance_score>  (267) 
0.792707

>  <original ID>  (267) 
NXUSKSDAWYFZGB-NTSWFWBYSA-N

>  <ref_mols>  (267) 
d0174a,d0376a

>  <SLURM_JOB_ID>  (267) 
211013

>  <ref_pdb>  (267) 
d0376a

$$$$
54795
     RDKit          3D

 22 24  0  0  0  0  0  0  0  0999 V2000
  -13.5790  -71.2724  -24.9939 C   0  0  0  0  0  0  0  0  0  0  0  0
  -14.6144  -70.1855  -25.2482 C   0  0  0  0  0  0  0  0  0  0  0  0
  -15.6654  -70.0322  -24.1395 C   0  0  0  0  0  0  0  0  0  0  0  0
  -15.0466  -69.7299  -22.8189 C   0  0  0  0  0  0  0  0  0  0  0  0
  -14.5070  -68.5901  -22.4373 N   0  0  0  0  0  0  0  0  0  0  0  0
  -13.7040  -68.7519  -21.3139 N   0  0  0  0  0  0  0  0  0  0  0  0
  -13.6857  -70.0069  -20.9478 C   0  0  0  0  0  0  0  0  0  0  0  0
  -12.6434  -70.5832  -20.1134 N   0  0  0  0  0  0  0  0  0  0  0  0
  -11.4507  -71.1684  -21.1902 S   0  0  0  0  0  0  0  0  0  0  0  0
  -11.2181  -70.2273  -22.2607 O   0  0  0  0  0  0  0  0  0  0  0  0
  -11.8058  -72.5487  -21.4465 O   0  0  0  0  0  0  0  0  0  0  0  0
  -10.0078  -71.2020  -20.1782 C   0  0  0  0  0  0  0  0  0  0  0  0
  -10.0311  -71.9074  -18.9693 C   0  0  0  0  0  0  0  0  0  0  0  0
   -8.8544  -72.0408  -18.2349 C   0  0  0  0  0  0  0  0  0  0  0  0
   -7.6688  -71.4950  -18.7252 C   0  0  0  0  0  0  0  0  0  0  0  0
   -7.6596  -70.8058  -19.9422 C   0  0  0  0  0  0  0  0  0  0  0  0
   -8.8328  -70.6256  -20.6598 C   0  0  0  0  0  0  0  0  0  0  0  0
   -6.5170  -70.2951  -20.4955 O   0  0  0  0  0  0  0  0  0  0  0  0
   -5.3649  -70.9774  -19.9926 C   0  0  0  0  0  0  0  0  0  0  0  0
   -5.4094  -70.9740  -18.4789 C   0  0  0  0  0  0  0  0  0  0  0  0
   -6.5403  -71.7014  -17.9767 O   0  0  0  0  0  0  0  0  0  0  0  0
  -14.9012  -70.9734  -21.6478 S   0  0  0  0  0  0  0  0  0  0  0  0
  1  2  1  0
  2  3  1  0
  3  4  1  0
  4  5  2  0
  5  6  1  0
  6  7  2  0
  7  8  1  0
  8  9  1  0
  9 10  2  0
  9 11  2  0
  9 12  1  0
 12 13  2  0
 13 14  1  0
 14 15  2  0
 15 16  1  0
 16 17  2  0
 16 18  1  0
 18 19  1  0
 19 20  1  0
 20 21  1  0
  7 22  1  0
 22  4  1  0
 17 12  1  0
 21 15  1  0
M  END
>  <SLURM_JOB_NAME>  (268) 
BulkDock.place:Flavi_NS5_RdRp:RdRp_knitwork_thumb_site_2_impure_split4000_batch000

>  <fragmenstein_error>  (268) 
['']

>  <HIPPO Compound ID>  (268) 
4670

>  <alias>  (268) 
None

>  <energy_score>  (268) 
-60.512709

>  <exports>  (268) 
['/opt/xchem-fragalysis-2/maxwin/BulkDock/OUTPUTS/RdRp_knitwork_thumb_site_2_impure_split4000_batch000_211013.sdf']

>  <fragmenstein_outcome>  (268) 
['acceptable']

>  <fragmenstein_mode>  (268) 
['expansion']

>  <HIPPO Pose ID>  (268) 
54795

>  <name>  (268) 
JFXCVJGKTUWCDE-UHFFFAOYSA-N

>  <fragmenstein_runtime>  (268) 
[4.728523254394531]

>  <csv_name>  (268) 
RdRp_knitwork_thumb_site_2_impure_split4000_batch000.csv

>  <inchikey>  (268) 
JFXCVJGKTUWCDE-UHFFFAOYSA-N

>  <original SMILES>  (268) 
CCCc1nnc(NS(=O)(=O)c2ccc3c(c2)OCCO3)s1

>  <scratch_subdir>  (268) 
['/opt/xchem-fragalysis-2/maxwin/BulkDock/SCRATCH/211013/C4670-P17']

>  <tags>  (268) 
['Fragmenstein placed']

>  <distance_score>  (268) 
0.88005

>  <original ID>  (268) 
JFXCVJGKTUWCDE-UHFFFAOYSA-N

>  <ref_mols>  (268) 
d0174a,d0376a

>  <SLURM_JOB_ID>  (268) 
211013

>  <ref_pdb>  (268) 
d0174a

$$$$
54796
     RDKit          3D

 22 24  0  0  0  0  0  0  0  0999 V2000
  -13.1258  -71.2734  -24.9834 C   0  0  0  0  0  0  0  0  0  0  0  0
  -14.3124  -70.3813  -25.3219 C   0  0  0  0  0  0  0  0  0  0  0  0
  -15.4380  -70.3738  -24.2747 C   0  0  0  0  0  0  0  0  0  0  0  0
  -14.9497  -69.9803  -22.9223 C   0  0  0  0  0  0  0  0  0  0  0  0
  -14.5036  -68.7974  -22.5521 N   0  0  0  0  0  0  0  0  0  0  0  0
  -13.7594  -68.8716  -21.3799 N   0  0  0  0  0  0  0  0  0  0  0  0
  -13.6918  -70.1107  -20.9690 C   0  0  0  0  0  0  0  0  0  0  0  0
  -12.6323  -70.6161  -20.1078 N   0  0  0  0  0  0  0  0  0  0  0  0
  -11.3968  -71.1395  -21.1725 S   0  0  0  0  0  0  0  0  0  0  0  0
  -11.1560  -70.1500  -22.1963 O   0  0  0  0  0  0  0  0  0  0  0  0
  -11.7177  -72.5149  -21.4933 O   0  0  0  0  0  0  0  0  0  0  0  0
   -9.9726  -71.1907  -20.1395 C   0  0  0  0  0  0  0  0  0  0  0  0
  -10.0217  -71.8703  -18.9176 C   0  0  0  0  0  0  0  0  0  0  0  0
   -8.8518  -72.0170  -18.1749 C   0  0  0  0  0  0  0  0  0  0  0  0
   -7.6507  -71.5090  -18.6691 C   0  0  0  0  0  0  0  0  0  0  0  0
   -7.6162  -70.8483  -19.9006 C   0  0  0  0  0  0  0  0  0  0  0  0
   -8.7808  -70.6542  -20.6261 C   0  0  0  0  0  0  0  0  0  0  0  0
   -6.4614  -70.3792  -20.4634 O   0  0  0  0  0  0  0  0  0  0  0  0
   -5.3166  -71.0290  -19.9050 C   0  0  0  0  0  0  0  0  0  0  0  0
   -5.4008  -70.9806  -18.3939 C   0  0  0  0  0  0  0  0  0  0  0  0
   -6.5321  -71.7196  -17.9072 O   0  0  0  0  0  0  0  0  0  0  0  0
  -14.8334  -71.1588  -21.6816 S   0  0  0  0  0  0  0  0  0  0  0  0
  1  2  1  0
  2  3  1  0
  3  4  1  0
  4  5  2  0
  5  6  1  0
  6  7  2  0
  7  8  1  0
  8  9  1  0
  9 10  2  0
  9 11  2  0
  9 12  1  0
 12 13  2  0
 13 14  1  0
 14 15  2  0
 15 16  1  0
 16 17  2  0
 16 18  1  0
 18 19  1  0
 19 20  1  0
 20 21  1  0
  7 22  1  0
 22  4  1  0
 17 12  1  0
 21 15  1  0
M  END
>  <SLURM_JOB_NAME>  (269) 
BulkDock.place:Flavi_NS5_RdRp:RdRp_knitwork_thumb_site_2_impure_split4000_batch000

>  <fragmenstein_error>  (269) 
['']

>  <HIPPO Compound ID>  (269) 
4670

>  <alias>  (269) 
None

>  <energy_score>  (269) 
-57.934636

>  <exports>  (269) 
['/opt/xchem-fragalysis-2/maxwin/BulkDock/OUTPUTS/RdRp_knitwork_thumb_site_2_impure_split4000_batch000_211013.sdf']

>  <fragmenstein_outcome>  (269) 
['acceptable']

>  <fragmenstein_mode>  (269) 
['expansion']

>  <HIPPO Pose ID>  (269) 
54796

>  <name>  (269) 
JFXCVJGKTUWCDE-UHFFFAOYSA-N

>  <fragmenstein_runtime>  (269) 
[3.524533271789551]

>  <csv_name>  (269) 
RdRp_knitwork_thumb_site_2_impure_split4000_batch000.csv

>  <inchikey>  (269) 
JFXCVJGKTUWCDE-UHFFFAOYSA-N

>  <original SMILES>  (269) 
CCCc1nnc(NS(=O)(=O)c2ccc3c(c2)OCCO3)s1

>  <scratch_subdir>  (269) 
['/opt/xchem-fragalysis-2/maxwin/BulkDock/SCRATCH/211013/C4670-P33']

>  <tags>  (269) 
['Fragmenstein placed']

>  <distance_score>  (269) 
0.924482

>  <original ID>  (269) 
JFXCVJGKTUWCDE-UHFFFAOYSA-N

>  <ref_mols>  (269) 
d0174a,d0376a

>  <SLURM_JOB_ID>  (269) 
211013

>  <ref_pdb>  (269) 
d0376a

$$$$
54819
     RDKit          3D

 21 23  0  0  0  0  0  0  0  0999 V2000
  -17.9324  -69.1631  -26.3291 C   0  0  0  0  0  0  0  0  0  0  0  0
  -16.8273  -70.0953  -25.8644 C   0  0  0  0  0  0  0  0  0  0  0  0
  -16.8511  -70.2790  -24.3427 C   0  0  0  0  0  0  0  0  0  0  0  0
  -15.5654  -70.2975  -23.6808 N   0  0  0  0  0  0  0  0  0  0  0  0
  -14.3497  -70.5175  -24.2399 C   0  0  0  0  0  0  0  0  0  0  0  0
  -13.4411  -70.1468  -23.2863 C   0  0  0  0  0  0  0  0  0  0  0  0
  -14.1948  -69.8792  -22.1145 C   0  0  0  0  0  0  0  0  0  0  0  0
  -13.6861  -69.4049  -20.7802 C   0  0  0  0  0  0  0  0  0  0  0  0
  -12.7831  -70.3424  -20.0709 N   0  0  0  0  0  0  0  0  0  0  0  0
  -11.5963  -70.6969  -20.8744 C   0  0  0  0  0  0  0  0  0  0  0  0
  -10.3581  -71.0411  -20.0704 C   0  0  0  0  0  0  0  0  0  0  0  0
  -10.4205  -71.8372  -18.9288 C   0  0  0  0  0  0  0  0  0  0  0  0
   -9.2420  -72.1192  -18.2395 C   0  0  0  0  0  0  0  0  0  0  0  0
   -8.0369  -71.6240  -18.7214 C   0  0  0  0  0  0  0  0  0  0  0  0
   -8.0551  -70.8815  -19.8980 C   0  0  0  0  0  0  0  0  0  0  0  0
   -9.1849  -70.5635  -20.5592 N   0  0  0  0  0  0  0  0  0  0  0  0
   -6.9077  -70.4044  -20.4777 O   0  0  0  0  0  0  0  0  0  0  0  0
   -5.7636  -71.1312  -20.0240 C   0  0  0  0  0  0  0  0  0  0  0  0
   -5.7647  -71.1872  -18.5087 C   0  0  0  0  0  0  0  0  0  0  0  0
   -6.9014  -71.9128  -18.0139 O   0  0  0  0  0  0  0  0  0  0  0  0
  -15.5110  -69.9973  -22.3648 N   0  0  0  0  0  0  0  0  0  0  0  0
  1  2  1  0
  2  3  1  0
  3  4  1  0
  4  5  1  0
  5  6  2  0
  6  7  1  0
  7  8  1  0
  8  9  1  0
  9 10  1  0
 10 11  1  0
 11 12  2  0
 12 13  1  0
 13 14  2  0
 14 15  1  0
 15 16  2  0
 15 17  1  0
 17 18  1  0
 18 19  1  0
 19 20  1  0
  7 21  2  0
 21  4  1  0
 16 11  1  0
 20 14  1  0
M  END
>  <SLURM_JOB_NAME>  (270) 
BulkDock.place:Flavi_NS5_RdRp:RdRp_knitwork_thumb_site_2_impure_split4000_batch000

>  <fragmenstein_error>  (270) 
['']

>  <HIPPO Compound ID>  (270) 
5076

>  <alias>  (270) 
None

>  <energy_score>  (270) 
-26.761036

>  <exports>  (270) 
['/opt/xchem-fragalysis-2/maxwin/BulkDock/OUTPUTS/RdRp_knitwork_thumb_site_2_impure_split4000_batch000_211013.sdf']

>  <fragmenstein_outcome>  (270) 
['acceptable']

>  <fragmenstein_mode>  (270) 
['expansion']

>  <HIPPO Pose ID>  (270) 
54819

>  <name>  (270) 
UGEFVIWPBQPAJW-UHFFFAOYSA-N

>  <fragmenstein_runtime>  (270) 
[4.794697046279907]

>  <csv_name>  (270) 
RdRp_knitwork_thumb_site_2_impure_split4000_batch000.csv

>  <inchikey>  (270) 
UGEFVIWPBQPAJW-UHFFFAOYSA-N

>  <original SMILES>  (270) 
CCCn1ccc(CNCc2ccc3c(n2)OCCO3)n1

>  <scratch_subdir>  (270) 
['/opt/xchem-fragalysis-2/maxwin/BulkDock/SCRATCH/211013/C5076-P33']

>  <tags>  (270) 
['Fragmenstein placed']

>  <distance_score>  (270) 
0.822537

>  <original ID>  (270) 
UGEFVIWPBQPAJW-UHFFFAOYSA-N

>  <ref_mols>  (270) 
d0174a,d0376a

>  <SLURM_JOB_ID>  (270) 
211013

>  <ref_pdb>  (270) 
d0376a

$$$$
54986
     RDKit          3D

 23 26  0  0  0  0  0  0  0  0999 V2000
   -6.4665  -72.5328  -17.4545 O   0  0  0  0  0  0  0  0  0  0  0  0
   -7.2206  -72.0928  -18.3171 C   0  0  0  0  0  0  0  0  0  0  0  0
   -8.6042  -71.7728  -17.9367 C   0  0  0  0  0  0  0  0  0  0  0  0
   -9.4770  -71.3337  -18.8407 C   0  0  0  0  0  0  0  0  0  0  0  0
   -9.0024  -71.1944  -20.2391 C   0  0  0  0  0  0  0  0  0  0  0  0
  -10.0151  -70.7999  -21.2620 C   0  0  0  0  0  0  0  0  0  0  0  0
   -9.7966  -71.0853  -22.6144 C   0  0  0  0  0  0  0  0  0  0  0  0
  -10.7838  -70.7976  -23.5526 C   0  0  0  0  0  0  0  0  0  0  0  0
  -11.9701  -70.2374  -23.1096 C   0  0  0  0  0  0  0  0  0  0  0  0
  -12.2137  -69.9323  -21.8181 N   0  0  0  0  0  0  0  0  0  0  0  0
  -11.2300  -70.2108  -20.9292 C   0  0  0  0  0  0  0  0  0  0  0  0
   -7.7828  -71.4513  -20.6094 N   0  0  0  0  0  0  0  0  0  0  0  0
   -6.8919  -71.8861  -19.6451 N   0  0  0  0  0  0  0  0  0  0  0  0
   -5.5215  -72.1096  -20.0699 C   0  0  0  0  0  0  0  0  0  0  0  0
   -4.7355  -70.8246  -20.0740 C   0  0  0  0  0  0  0  0  0  0  0  0
   -5.0571  -69.7532  -19.4156 N   0  0  0  0  0  0  0  0  0  0  0  0
   -4.0674  -68.7825  -19.7330 O   0  0  0  0  0  0  0  0  0  0  0  0
   -3.4126  -69.2278  -20.9290 C   0  0  1  0  0  0  0  0  0  0  0  0
   -2.1169  -68.6968  -21.1530 O   0  0  0  0  0  0  0  0  0  0  0  0
   -1.1706  -69.0955  -20.1708 C   0  0  0  0  0  0  0  0  0  0  0  0
   -0.9844  -70.6036  -20.2358 C   0  0  0  0  0  0  0  0  0  0  0  0
   -2.3067  -71.3077  -19.9580 C   0  0  0  0  0  0  0  0  0  0  0  0
   -3.4398  -70.7378  -20.8122 C   0  0  1  0  0  0  0  0  0  0  0  0
  1  2  2  0
  2  3  1  0
  3  4  2  0
  4  5  1  0
  5  6  1  0
  6  7  2  0
  7  8  1  0
  8  9  2  0
  9 10  1  0
 10 11  2  0
  5 12  2  0
 12 13  1  0
 13 14  1  0
 14 15  1  0
 15 16  2  0
 16 17  1  0
 18 17  1  1
 18 19  1  0
 19 20  1  0
 20 21  1  0
 21 22  1  0
 23 22  1  1
 13  2  1  0
 23 15  1  0
 11  6  1  0
 23 18  1  0
M  END
>  <SLURM_JOB_NAME>  (271) 
BulkDock.place:Flavi_NS5_RdRp:RdRp_knitwork_thumb_site_2_impure_split4000_batch000

>  <fragmenstein_error>  (271) 
['']

>  <HIPPO Compound ID>  (271) 
4744

>  <alias>  (271) 
None

>  <energy_score>  (271) 
-51.826838

>  <exports>  (271) 
['/opt/xchem-fragalysis-2/maxwin/BulkDock/OUTPUTS/RdRp_knitwork_thumb_site_2_impure_split4000_batch000_211013.sdf']

>  <fragmenstein_outcome>  (271) 
['acceptable']

>  <fragmenstein_mode>  (271) 
['expansion']

>  <HIPPO Pose ID>  (271) 
54986

>  <name>  (271) 
NVJOCMJLGMQHDF-BLLLJJGKSA-N

>  <fragmenstein_runtime>  (271) 
[2.922501564025879]

>  <csv_name>  (271) 
RdRp_knitwork_thumb_site_2_impure_split4000_batch000.csv

>  <inchikey>  (271) 
NVJOCMJLGMQHDF-BLLLJJGKSA-N

>  <original SMILES>  (271) 
O=c1ccc(-c2cccnc2)nn1CC1=NO[C@H]2OCCC[C@@H]12

>  <scratch_subdir>  (271) 
['/opt/xchem-fragalysis-2/maxwin/BulkDock/SCRATCH/211013/C4744-P50']

>  <tags>  (271) 
['Fragmenstein placed']

>  <distance_score>  (271) 
0.964636

>  <original ID>  (271) 
NVJOCMJLGMQHDF-BLLLJJGKSA-N

>  <ref_mols>  (271) 
d0379a,d0615a

>  <SLURM_JOB_ID>  (271) 
211013

>  <ref_pdb>  (271) 
d0615a

$$$$
54989
     RDKit          3D

 23 26  0  0  0  0  0  0  0  0999 V2000
   -6.6425  -72.5849  -17.2996 O   0  0  0  0  0  0  0  0  0  0  0  0
   -7.3424  -72.1193  -18.1940 C   0  0  0  0  0  0  0  0  0  0  0  0
   -8.6992  -71.6729  -17.8478 C   0  0  0  0  0  0  0  0  0  0  0  0
   -9.5294  -71.2150  -18.7819 C   0  0  0  0  0  0  0  0  0  0  0  0
   -9.0433  -71.2000  -20.1832 C   0  0  0  0  0  0  0  0  0  0  0  0
  -10.0223  -70.8101  -21.2444 C   0  0  0  0  0  0  0  0  0  0  0  0
   -9.7518  -71.0954  -22.5877 C   0  0  0  0  0  0  0  0  0  0  0  0
  -10.7018  -70.8134  -23.5656 C   0  0  0  0  0  0  0  0  0  0  0  0
  -11.9082  -70.2607  -23.1715 C   0  0  0  0  0  0  0  0  0  0  0  0
  -12.2052  -69.9581  -21.8911 N   0  0  0  0  0  0  0  0  0  0  0  0
  -11.2555  -70.2309  -20.9635 C   0  0  0  0  0  0  0  0  0  0  0  0
   -7.8402  -71.5593  -20.5222 N   0  0  0  0  0  0  0  0  0  0  0  0
   -6.9811  -71.9891  -19.5208 N   0  0  0  0  0  0  0  0  0  0  0  0
   -5.6171  -72.3362  -19.9084 C   0  0  0  0  0  0  0  0  0  0  0  0
   -4.7650  -71.1172  -20.1231 C   0  0  0  0  0  0  0  0  0  0  0  0
   -5.0233  -69.9923  -19.4507 N   0  0  0  0  0  0  0  0  0  0  0  0
   -4.0255  -68.8060  -20.0024 S   0  0  0  0  0  0  0  0  0  0  0  0
   -3.1409  -69.7632  -21.1003 C   0  0  0  0  0  0  0  0  0  0  0  0
   -2.0959  -69.3935  -21.9590 C   0  0  0  0  0  0  0  0  0  0  0  0
   -1.5439  -70.3845  -22.7751 C   0  0  0  0  0  0  0  0  0  0  0  0
   -1.9901  -71.6989  -22.7134 C   0  0  0  0  0  0  0  0  0  0  0  0
   -3.0335  -72.0500  -21.8531 C   0  0  0  0  0  0  0  0  0  0  0  0
   -3.6400  -71.0650  -21.0365 C   0  0  0  0  0  0  0  0  0  0  0  0
  1  2  2  0
  2  3  1  0
  3  4  2  0
  4  5  1  0
  5  6  1  0
  6  7  2  0
  7  8  1  0
  8  9  2  0
  9 10  1  0
 10 11  2  0
  5 12  2  0
 12 13  1  0
 13 14  1  0
 14 15  1  0
 15 16  2  0
 16 17  1  0
 17 18  1  0
 18 19  2  0
 19 20  1  0
 20 21  2  0
 21 22  1  0
 22 23  2  0
 13  2  1  0
 23 15  1  0
 11  6  1  0
 23 18  1  0
M  END
>  <SLURM_JOB_NAME>  (272) 
BulkDock.place:Flavi_NS5_RdRp:RdRp_knitwork_thumb_site_2_impure_split4000_batch000

>  <fragmenstein_error>  (272) 
['']

>  <HIPPO Compound ID>  (272) 
4745

>  <alias>  (272) 
None

>  <energy_score>  (272) 
-54.107404

>  <exports>  (272) 
['/opt/xchem-fragalysis-2/maxwin/BulkDock/OUTPUTS/RdRp_knitwork_thumb_site_2_impure_split4000_batch000_211013.sdf']

>  <fragmenstein_outcome>  (272) 
['acceptable']

>  <fragmenstein_mode>  (272) 
['expansion']

>  <HIPPO Pose ID>  (272) 
54989

>  <name>  (272) 
SRYIZWIXZDSVQX-UHFFFAOYSA-N

>  <fragmenstein_runtime>  (272) 
[1.401735544204712]

>  <csv_name>  (272) 
RdRp_knitwork_thumb_site_2_impure_split4000_batch000.csv

>  <inchikey>  (272) 
SRYIZWIXZDSVQX-UHFFFAOYSA-N

>  <original SMILES>  (272) 
O=c1ccc(-c2cccnc2)nn1Cc1nsc2ccccc12

>  <scratch_subdir>  (272) 
['/opt/xchem-fragalysis-2/maxwin/BulkDock/SCRATCH/211013/C4745-P50']

>  <tags>  (272) 
['Fragmenstein placed']

>  <distance_score>  (272) 
0.981398

>  <original ID>  (272) 
SRYIZWIXZDSVQX-UHFFFAOYSA-N

>  <ref_mols>  (272) 
d0379a,d0615a

>  <SLURM_JOB_ID>  (272) 
211013

>  <ref_pdb>  (272) 
d0615a

$$$$
55029
     RDKit          3D

 22 24  0  0  0  0  0  0  0  0999 V2000
  -13.1364  -68.5597  -20.4137 O   0  0  0  0  0  0  0  0  0  0  0  0
  -13.8413  -69.8120  -20.3144 S   0  0  0  0  0  0  0  0  0  0  0  0
  -14.3440  -70.2901  -19.0402 O   0  0  0  0  0  0  0  0  0  0  0  0
  -15.2086  -69.7884  -21.4809 C   0  0  0  0  0  0  0  0  0  0  0  0
  -14.7411  -69.9877  -22.9094 C   0  0  0  0  0  0  0  0  0  0  0  0
  -15.7915  -70.0083  -23.9631 C   0  0  0  0  0  0  0  0  0  0  0  0
  -17.1913  -69.8813  -23.8728 C   0  0  0  0  0  0  0  0  0  0  0  0
  -17.7771  -69.8160  -25.0693 N   0  0  0  0  0  0  0  0  0  0  0  0
  -16.7662  -70.0653  -25.9801 O   0  0  0  0  0  0  0  0  0  0  0  0
  -15.5922  -70.1923  -25.3146 C   0  0  0  0  0  0  0  0  0  0  0  0
  -12.8713  -71.0368  -20.9123 N   0  0  0  0  0  0  0  0  0  0  0  0
  -11.4817  -70.7353  -21.3302 C   0  0  1  0  0  0  0  0  0  0  0  0
  -10.4357  -71.0500  -20.2650 C   0  0  0  0  0  0  0  0  0  0  0  0
  -10.6280  -71.9945  -19.2509 C   0  0  0  0  0  0  0  0  0  0  0  0
   -9.5839  -72.2707  -18.3767 C   0  0  0  0  0  0  0  0  0  0  0  0
   -8.3668  -71.6964  -18.4452 N   0  0  0  0  0  0  0  0  0  0  0  0
   -8.1863  -70.7967  -19.4309 C   0  0  0  0  0  0  0  0  0  0  0  0
   -9.1785  -70.4278  -20.3267 C   0  0  0  0  0  0  0  0  0  0  0  0
  -11.1439  -71.5429  -22.5960 C   0  0  0  0  0  0  0  0  0  0  0  0
  -11.7983  -71.1415  -23.9541 C   0  0  0  0  0  0  0  0  0  0  0  0
  -10.4680  -71.4987  -24.6356 C   0  0  0  0  0  0  0  0  0  0  0  0
   -9.7941  -71.2109  -23.2912 C   0  0  0  0  0  0  0  0  0  0  0  0
  1  2  2  0
  2  3  2  0
  2  4  1  0
  4  5  1  0
  5  6  1  0
  6  7  1  0
  7  8  2  0
  8  9  1  0
  9 10  1  0
  2 11  1  0
 12 11  1  1
 12 13  1  0
 13 14  2  0
 14 15  1  0
 15 16  2  0
 16 17  1  0
 17 18  2  0
 12 19  1  0
 19 20  1  0
 20 21  1  0
 21 22  1  0
 10  6  2  0
 18 13  1  0
 22 19  1  0
M  END
>  <SLURM_JOB_NAME>  (273) 
BulkDock.place:Flavi_NS5_RdRp:RdRp_knitwork_thumb_site_2_impure_split4000_batch000

>  <fragmenstein_error>  (273) 
['']

>  <HIPPO Compound ID>  (273) 
1453

>  <alias>  (273) 
None

>  <energy_score>  (273) 
-64.771967

>  <exports>  (273) 
['/opt/xchem-fragalysis-2/maxwin/BulkDock/OUTPUTS/RdRp_knitwork_thumb_site_2_impure_split4000_batch000_211013.sdf']

>  <fragmenstein_outcome>  (273) 
['acceptable']

>  <fragmenstein_mode>  (273) 
['expansion']

>  <HIPPO Pose ID>  (273) 
55029

>  <name>  (273) 
LMZFONDIQODLJV-OAHLLOKOSA-N

>  <fragmenstein_runtime>  (273) 
[5.773651123046875]

>  <csv_name>  (273) 
RdRp_knitwork_thumb_site_2_impure_split4000_batch000.csv

>  <inchikey>  (273) 
LMZFONDIQODLJV-OAHLLOKOSA-N

>  <original SMILES>  (273) 
O=S(=O)(CCc1cnoc1)N[C@@H](c1ccncc1)C1CCC1

>  <scratch_subdir>  (273) 
['/opt/xchem-fragalysis-2/maxwin/BulkDock/SCRATCH/211013/C1453-P17']

>  <tags>  (273) 
['Fragmenstein placed']

>  <distance_score>  (273) 
0.779906

>  <original ID>  (273) 
LMZFONDIQODLJV-OAHLLOKOSA-N

>  <ref_mols>  (273) 
d0174a,d0615a,d0759a

>  <SLURM_JOB_ID>  (273) 
211013

>  <ref_pdb>  (273) 
d0174a

$$$$
55030
     RDKit          3D

 22 24  0  0  0  0  0  0  0  0999 V2000
  -13.0732  -68.6120  -20.3107 O   0  0  0  0  0  0  0  0  0  0  0  0
  -13.7530  -69.8800  -20.2468 S   0  0  0  0  0  0  0  0  0  0  0  0
  -14.2359  -70.4142  -18.9876 O   0  0  0  0  0  0  0  0  0  0  0  0
  -15.1333  -69.8413  -21.3905 C   0  0  0  0  0  0  0  0  0  0  0  0
  -14.6822  -69.9589  -22.8346 C   0  0  0  0  0  0  0  0  0  0  0  0
  -15.7652  -69.9882  -23.8512 C   0  0  0  0  0  0  0  0  0  0  0  0
  -17.1525  -69.8164  -23.7014 C   0  0  0  0  0  0  0  0  0  0  0  0
  -17.7905  -69.7564  -24.8704 N   0  0  0  0  0  0  0  0  0  0  0  0
  -16.8283  -70.0602  -25.8197 O   0  0  0  0  0  0  0  0  0  0  0  0
  -15.6294  -70.2111  -25.2034 C   0  0  0  0  0  0  0  0  0  0  0  0
  -12.7753  -71.0670  -20.9062 N   0  0  0  0  0  0  0  0  0  0  0  0
  -11.3970  -70.7276  -21.3334 C   0  0  1  0  0  0  0  0  0  0  0  0
  -10.3401  -71.0161  -20.2729 C   0  0  0  0  0  0  0  0  0  0  0  0
  -10.5102  -71.9604  -19.2542 C   0  0  0  0  0  0  0  0  0  0  0  0
   -9.4600  -72.2089  -18.3796 C   0  0  0  0  0  0  0  0  0  0  0  0
   -8.2569  -71.6063  -18.4517 N   0  0  0  0  0  0  0  0  0  0  0  0
   -8.0985  -70.7067  -19.4419 C   0  0  0  0  0  0  0  0  0  0  0  0
   -9.0986  -70.3651  -20.3395 C   0  0  0  0  0  0  0  0  0  0  0  0
  -11.0429  -71.5229  -22.6032 C   0  0  0  0  0  0  0  0  0  0  0  0
  -11.7262  -71.1281  -23.9484 C   0  0  0  0  0  0  0  0  0  0  0  0
  -10.3997  -71.4531  -24.6533 C   0  0  0  0  0  0  0  0  0  0  0  0
   -9.7077  -71.1620  -23.3183 C   0  0  0  0  0  0  0  0  0  0  0  0
  1  2  2  0
  2  3  2  0
  2  4  1  0
  4  5  1  0
  5  6  1  0
  6  7  1  0
  7  8  2  0
  8  9  1  0
  9 10  1  0
  2 11  1  0
 12 11  1  1
 12 13  1  0
 13 14  2  0
 14 15  1  0
 15 16  2  0
 16 17  1  0
 17 18  2  0
 12 19  1  0
 19 20  1  0
 20 21  1  0
 21 22  1  0
 10  6  2  0
 18 13  1  0
 22 19  1  0
M  END
>  <SLURM_JOB_NAME>  (274) 
BulkDock.place:Flavi_NS5_RdRp:RdRp_knitwork_thumb_site_2_impure_split4000_batch000

>  <fragmenstein_error>  (274) 
['']

>  <HIPPO Compound ID>  (274) 
1453

>  <alias>  (274) 
None

>  <energy_score>  (274) 
-65.442873

>  <exports>  (274) 
['/opt/xchem-fragalysis-2/maxwin/BulkDock/OUTPUTS/RdRp_knitwork_thumb_site_2_impure_split4000_batch000_211013.sdf']

>  <fragmenstein_outcome>  (274) 
['acceptable']

>  <fragmenstein_mode>  (274) 
['expansion']

>  <HIPPO Pose ID>  (274) 
55030

>  <name>  (274) 
LMZFONDIQODLJV-OAHLLOKOSA-N

>  <fragmenstein_runtime>  (274) 
[5.452700853347778]

>  <csv_name>  (274) 
RdRp_knitwork_thumb_site_2_impure_split4000_batch000.csv

>  <inchikey>  (274) 
LMZFONDIQODLJV-OAHLLOKOSA-N

>  <original SMILES>  (274) 
O=S(=O)(CCc1cnoc1)N[C@@H](c1ccncc1)C1CCC1

>  <scratch_subdir>  (274) 
['/opt/xchem-fragalysis-2/maxwin/BulkDock/SCRATCH/211013/C1453-P50']

>  <tags>  (274) 
['Fragmenstein placed']

>  <distance_score>  (274) 
0.792769

>  <original ID>  (274) 
LMZFONDIQODLJV-OAHLLOKOSA-N

>  <ref_mols>  (274) 
d0174a,d0615a

>  <SLURM_JOB_ID>  (274) 
211013

>  <ref_pdb>  (274) 
d0615a

$$$$
55040
     RDKit          3D

 21 23  0  0  0  0  0  0  0  0999 V2000
  -12.8738  -68.7932  -20.4799 O   0  0  0  0  0  0  0  0  0  0  0  0
  -13.7082  -69.9549  -20.3179 S   0  0  0  0  0  0  0  0  0  0  0  0
  -14.1913  -70.3596  -19.0099 O   0  0  0  0  0  0  0  0  0  0  0  0
  -15.1271  -69.8014  -21.3803 C   0  0  0  0  0  0  0  0  0  0  0  0
  -14.7718  -69.1947  -22.7174 C   0  0  0  0  0  0  0  0  0  0  0  0
  -15.6731  -69.6469  -23.7628 N   0  0  0  0  0  0  0  0  0  0  0  0
  -15.3542  -70.4534  -24.8154 C   0  0  0  0  0  0  0  0  0  0  0  0
  -16.5075  -70.6096  -25.5447 C   0  0  0  0  0  0  0  0  0  0  0  0
  -17.4745  -69.8766  -24.8404 C   0  0  0  0  0  0  0  0  0  0  0  0
  -16.9711  -69.2717  -23.7598 N   0  0  0  0  0  0  0  0  0  0  0  0
  -12.9754  -71.3149  -20.9649 N   0  0  0  0  0  0  0  0  0  0  0  0
  -11.5449  -71.3673  -21.3431 C   0  0  2  0  0  0  0  0  0  0  0  0
  -10.5288  -71.2175  -20.2183 C   0  0  0  0  0  0  0  0  0  0  0  0
  -10.8130  -71.6956  -18.9322 C   0  0  0  0  0  0  0  0  0  0  0  0
   -9.8116  -71.7009  -17.9703 C   0  0  0  0  0  0  0  0  0  0  0  0
   -8.5501  -71.2821  -18.1893 N   0  0  0  0  0  0  0  0  0  0  0  0
   -8.2817  -70.8234  -19.4280 C   0  0  0  0  0  0  0  0  0  0  0  0
   -9.2198  -70.7628  -20.4485 C   0  0  0  0  0  0  0  0  0  0  0  0
  -11.2741  -70.5037  -22.5430 C   0  0  0  0  0  0  0  0  0  0  0  0
  -11.6503  -70.9352  -23.9445 C   0  0  0  0  0  0  0  0  0  0  0  0
  -10.2105  -70.8781  -23.5560 C   0  0  0  0  0  0  0  0  0  0  0  0
  1  2  2  0
  2  3  2  0
  2  4  1  0
  4  5  1  0
  5  6  1  0
  6  7  1  0
  7  8  2  0
  8  9  1  0
  9 10  2  0
  2 11  1  0
 12 11  1  1
 12 13  1  0
 13 14  2  0
 14 15  1  0
 15 16  2  0
 16 17  1  0
 17 18  2  0
 12 19  1  0
 19 20  1  0
 20 21  1  0
 10  6  1  0
 18 13  1  0
 21 19  1  0
M  END
>  <SLURM_JOB_NAME>  (275) 
BulkDock.place:Flavi_NS5_RdRp:RdRp_knitwork_thumb_site_2_impure_split4000_batch000

>  <fragmenstein_error>  (275) 
['']

>  <HIPPO Compound ID>  (275) 
1789

>  <alias>  (275) 
None

>  <energy_score>  (275) 
-37.564617

>  <exports>  (275) 
['/opt/xchem-fragalysis-2/maxwin/BulkDock/OUTPUTS/RdRp_knitwork_thumb_site_2_impure_split4000_batch000_211013.sdf']

>  <fragmenstein_outcome>  (275) 
['acceptable']

>  <fragmenstein_mode>  (275) 
['expansion']

>  <HIPPO Pose ID>  (275) 
55040

>  <name>  (275) 
JMRMNQMIQMSPBH-AWEZNQCLSA-N

>  <fragmenstein_runtime>  (275) 
[9.094169855117798]

>  <csv_name>  (275) 
RdRp_knitwork_thumb_site_2_impure_split4000_batch000.csv

>  <inchikey>  (275) 
JMRMNQMIQMSPBH-AWEZNQCLSA-N

>  <original SMILES>  (275) 
O=S(=O)(CCn1cccn1)N[C@H](c1ccncc1)C1CC1

>  <scratch_subdir>  (275) 
['/opt/xchem-fragalysis-2/maxwin/BulkDock/SCRATCH/211013/C1789-P17']

>  <tags>  (275) 
['Fragmenstein placed']

>  <distance_score>  (275) 
0.770525

>  <original ID>  (275) 
JMRMNQMIQMSPBH-AWEZNQCLSA-N

>  <ref_mols>  (275) 
d0174a,d0615a

>  <SLURM_JOB_ID>  (275) 
211013

>  <ref_pdb>  (275) 
d0174a

$$$$
55041
     RDKit          3D

 21 23  0  0  0  0  0  0  0  0999 V2000
  -12.8397  -68.8215  -20.4108 O   0  0  0  0  0  0  0  0  0  0  0  0
  -13.6800  -69.9833  -20.2784 S   0  0  0  0  0  0  0  0  0  0  0  0
  -14.1569  -70.4283  -18.9816 O   0  0  0  0  0  0  0  0  0  0  0  0
  -15.1000  -69.7927  -21.3380 C   0  0  0  0  0  0  0  0  0  0  0  0
  -14.7241  -69.1813  -22.6684 C   0  0  0  0  0  0  0  0  0  0  0  0
  -15.5742  -69.6603  -23.7425 N   0  0  0  0  0  0  0  0  0  0  0  0
  -15.1798  -70.3927  -24.8224 C   0  0  0  0  0  0  0  0  0  0  0  0
  -16.2948  -70.5580  -25.6045 C   0  0  0  0  0  0  0  0  0  0  0  0
  -17.3232  -69.9231  -24.8932 C   0  0  0  0  0  0  0  0  0  0  0  0
  -16.8927  -69.3662  -23.7578 N   0  0  0  0  0  0  0  0  0  0  0  0
  -12.9505  -71.3265  -20.9650 N   0  0  0  0  0  0  0  0  0  0  0  0
  -11.5156  -71.3774  -21.3249 C   0  0  2  0  0  0  0  0  0  0  0  0
  -10.5101  -71.2193  -20.1916 C   0  0  0  0  0  0  0  0  0  0  0  0
  -10.7852  -71.7400  -18.9205 C   0  0  0  0  0  0  0  0  0  0  0  0
   -9.7896  -71.7355  -17.9524 C   0  0  0  0  0  0  0  0  0  0  0  0
   -8.5412  -71.2692  -18.1524 N   0  0  0  0  0  0  0  0  0  0  0  0
   -8.2828  -70.7685  -19.3767 C   0  0  0  0  0  0  0  0  0  0  0  0
   -9.2173  -70.7110  -20.4003 C   0  0  0  0  0  0  0  0  0  0  0  0
  -11.2341  -70.5179  -22.5239 C   0  0  0  0  0  0  0  0  0  0  0  0
  -11.5656  -70.9603  -23.9325 C   0  0  0  0  0  0  0  0  0  0  0  0
  -10.1373  -70.8858  -23.5067 C   0  0  0  0  0  0  0  0  0  0  0  0
  1  2  2  0
  2  3  2  0
  2  4  1  0
  4  5  1  0
  5  6  1  0
  6  7  1  0
  7  8  2  0
  8  9  1  0
  9 10  2  0
  2 11  1  0
 12 11  1  1
 12 13  1  0
 13 14  2  0
 14 15  1  0
 15 16  2  0
 16 17  1  0
 17 18  2  0
 12 19  1  0
 19 20  1  0
 20 21  1  0
 10  6  1  0
 18 13  1  0
 21 19  1  0
M  END
>  <SLURM_JOB_NAME>  (276) 
BulkDock.place:Flavi_NS5_RdRp:RdRp_knitwork_thumb_site_2_impure_split4000_batch000

>  <fragmenstein_error>  (276) 
['']

>  <HIPPO Compound ID>  (276) 
1789

>  <alias>  (276) 
None

>  <energy_score>  (276) 
-37.180707

>  <exports>  (276) 
['/opt/xchem-fragalysis-2/maxwin/BulkDock/OUTPUTS/RdRp_knitwork_thumb_site_2_impure_split4000_batch000_211013.sdf']

>  <fragmenstein_outcome>  (276) 
['acceptable']

>  <fragmenstein_mode>  (276) 
['expansion']

>  <HIPPO Pose ID>  (276) 
55041

>  <name>  (276) 
JMRMNQMIQMSPBH-AWEZNQCLSA-N

>  <fragmenstein_runtime>  (276) 
[8.791437149047852]

>  <csv_name>  (276) 
RdRp_knitwork_thumb_site_2_impure_split4000_batch000.csv

>  <inchikey>  (276) 
JMRMNQMIQMSPBH-AWEZNQCLSA-N

>  <original SMILES>  (276) 
O=S(=O)(CCn1cccn1)N[C@H](c1ccncc1)C1CC1

>  <scratch_subdir>  (276) 
['/opt/xchem-fragalysis-2/maxwin/BulkDock/SCRATCH/211013/C1789-P50']

>  <tags>  (276) 
['Fragmenstein placed']

>  <distance_score>  (276) 
0.78536

>  <original ID>  (276) 
JMRMNQMIQMSPBH-AWEZNQCLSA-N

>  <ref_mols>  (276) 
d0174a,d0615a

>  <SLURM_JOB_ID>  (276) 
211013

>  <ref_pdb>  (276) 
d0615a

$$$$
55054
     RDKit          3D

 23 25  0  0  0  0  0  0  0  0999 V2000
   -3.9746  -69.7926  -20.1538 C   0  0  0  0  0  0  0  0  0  0  0  0
   -5.1271  -70.7889  -19.8897 C   0  0  1  0  0  0  0  0  0  0  0  0
   -4.7065  -72.1288  -20.5474 C   0  0  0  0  0  0  0  0  0  0  0  0
   -5.6879  -73.2206  -20.3481 N   0  0  0  0  0  0  0  0  0  0  0  0
   -5.3785  -74.6172  -21.2368 S   0  0  0  0  0  0  0  0  0  0  0  0
   -4.1891  -75.2361  -20.6976 O   0  0  0  0  0  0  0  0  0  0  0  0
   -5.4377  -74.2554  -22.6358 O   0  0  0  0  0  0  0  0  0  0  0  0
   -6.8075  -75.6251  -20.8878 C   0  0  0  0  0  0  0  0  0  0  0  0
   -6.6407  -76.4959  -19.6628 C   0  0  0  0  0  0  0  0  0  0  0  0
   -6.8628  -75.7998  -18.4105 N   0  0  0  0  0  0  0  0  0  0  0  0
   -7.8370  -76.0686  -17.4914 C   0  0  0  0  0  0  0  0  0  0  0  0
   -7.5775  -75.2578  -16.4121 C   0  0  0  0  0  0  0  0  0  0  0  0
   -6.4378  -74.5250  -16.7848 C   0  0  0  0  0  0  0  0  0  0  0  0
   -6.0242  -74.8212  -18.0211 N   0  0  0  0  0  0  0  0  0  0  0  0
   -5.3517  -70.8658  -18.3826 C   0  0  0  0  0  0  0  0  0  0  0  0
   -6.5195  -71.6035  -17.9971 O   0  0  0  0  0  0  0  0  0  0  0  0
   -7.6041  -71.3139  -18.7788 C   0  0  0  0  0  0  0  0  0  0  0  0
   -8.8529  -71.7406  -18.3227 C   0  0  0  0  0  0  0  0  0  0  0  0
  -10.0007  -71.4688  -19.0708 C   0  0  0  0  0  0  0  0  0  0  0  0
   -9.8958  -70.7771  -20.2778 C   0  0  0  0  0  0  0  0  0  0  0  0
   -8.6430  -70.3647  -20.7380 C   0  0  0  0  0  0  0  0  0  0  0  0
   -7.4957  -70.6453  -19.9942 C   0  0  0  0  0  0  0  0  0  0  0  0
   -6.3017  -70.2247  -20.5112 O   0  0  0  0  0  0  0  0  0  0  0  0
  2  1  1  1
  2  3  1  0
  3  4  1  0
  4  5  1  0
  5  6  2  0
  5  7  2  0
  5  8  1  0
  8  9  1  0
  9 10  1  0
 10 11  1  0
 11 12  2  0
 12 13  1  0
 13 14  2  0
  2 15  1  0
 15 16  1  0
 16 17  1  0
 17 18  2  0
 18 19  1  0
 19 20  2  0
 20 21  1  0
 21 22  2  0
 22 23  1  0
 23  2  1  0
 14 10  1  0
 22 17  1  0
M  END
>  <SLURM_JOB_NAME>  (277) 
BulkDock.place:Flavi_NS5_RdRp:RdRp_knitwork_thumb_site_2_impure_split4000_batch000

>  <fragmenstein_error>  (277) 
['']

>  <HIPPO Compound ID>  (277) 
1107

>  <alias>  (277) 
None

>  <energy_score>  (277) 
-48.532645

>  <exports>  (277) 
['/opt/xchem-fragalysis-2/maxwin/BulkDock/OUTPUTS/RdRp_knitwork_thumb_site_2_impure_split4000_batch000_211013.sdf']

>  <fragmenstein_outcome>  (277) 
['acceptable']

>  <fragmenstein_mode>  (277) 
['expansion']

>  <HIPPO Pose ID>  (277) 
55054

>  <name>  (277) 
CBRIMCAFIKJVHZ-OAHLLOKOSA-N

>  <fragmenstein_runtime>  (277) 
[5.209507465362549]

>  <csv_name>  (277) 
RdRp_knitwork_thumb_site_2_impure_split4000_batch000.csv

>  <inchikey>  (277) 
CBRIMCAFIKJVHZ-OAHLLOKOSA-N

>  <original SMILES>  (277) 
C[C@@]1(CNS(=O)(=O)CCn2cccn2)COc2ccccc2O1

>  <scratch_subdir>  (277) 
['/opt/xchem-fragalysis-2/maxwin/BulkDock/SCRATCH/211013/C1107-P50']

>  <tags>  (277) 
['Fragmenstein placed']

>  <distance_score>  (277) 
0.916944

>  <original ID>  (277) 
CBRIMCAFIKJVHZ-OAHLLOKOSA-N

>  <ref_mols>  (277) 
d0174a,d0615a

>  <SLURM_JOB_ID>  (277) 
211013

>  <ref_pdb>  (277) 
d0615a

$$$$
55056
     RDKit          3D

 21 23  0  0  0  0  0  0  0  0999 V2000
  -12.6058  -68.8107  -20.1157 O   0  0  0  0  0  0  0  0  0  0  0  0
  -13.6003  -69.8223  -20.3660 S   0  0  0  0  0  0  0  0  0  0  0  0
  -14.5465  -70.1834  -19.3272 O   0  0  0  0  0  0  0  0  0  0  0  0
  -14.5073  -69.3947  -21.8589 C   0  0  0  0  0  0  0  0  0  0  0  0
  -15.1497  -70.6075  -22.5050 C   0  0  0  0  0  0  0  0  0  0  0  0
  -15.8794  -70.3067  -23.7630 C   0  0  0  0  0  0  0  0  0  0  0  0
  -17.2452  -69.9972  -23.9250 C   0  0  0  0  0  0  0  0  0  0  0  0
  -17.5640  -69.7278  -25.1912 N   0  0  0  0  0  0  0  0  0  0  0  0
  -16.4101  -69.9836  -25.9130 O   0  0  0  0  0  0  0  0  0  0  0  0
  -15.4121  -70.3190  -25.0566 C   0  0  0  0  0  0  0  0  0  0  0  0
  -12.8432  -71.2482  -20.7489 N   0  0  0  0  0  0  0  0  0  0  0  0
  -11.4923  -71.3566  -21.3168 C   0  0  2  0  0  0  0  0  0  0  0  0
  -10.3741  -71.2849  -20.2924 C   0  0  0  0  0  0  0  0  0  0  0  0
  -10.4544  -72.0275  -19.1037 C   0  0  0  0  0  0  0  0  0  0  0  0
   -9.3693  -72.0897  -18.2322 C   0  0  0  0  0  0  0  0  0  0  0  0
   -8.2157  -71.4124  -18.5760 C   0  0  0  0  0  0  0  0  0  0  0  0
   -8.0946  -70.6716  -19.6930 N   0  0  0  0  0  0  0  0  0  0  0  0
   -9.1706  -70.6166  -20.5154 C   0  0  0  0  0  0  0  0  0  0  0  0
  -11.2991  -70.4705  -22.5136 C   0  0  0  0  0  0  0  0  0  0  0  0
  -10.2926  -70.8363  -23.5862 C   0  0  0  0  0  0  0  0  0  0  0  0
  -11.7543  -70.8643  -23.9001 C   0  0  0  0  0  0  0  0  0  0  0  0
  1  2  2  0
  2  3  2  0
  2  4  1  0
  4  5  1  0
  5  6  1  0
  6  7  1  0
  7  8  2  0
  8  9  1  0
  9 10  1  0
  2 11  1  0
 12 11  1  1
 12 13  1  0
 13 14  2  0
 14 15  1  0
 15 16  2  0
 16 17  1  0
 17 18  2  0
 12 19  1  0
 19 20  1  0
 20 21  1  0
 10  6  2  0
 18 13  1  0
 21 19  1  0
M  END
>  <SLURM_JOB_NAME>  (278) 
BulkDock.place:Flavi_NS5_RdRp:RdRp_knitwork_thumb_site_2_impure_split4000_batch000

>  <fragmenstein_error>  (278) 
['']

>  <HIPPO Compound ID>  (278) 
1504

>  <alias>  (278) 
None

>  <energy_score>  (278) 
-83.763917

>  <exports>  (278) 
['/opt/xchem-fragalysis-2/maxwin/BulkDock/OUTPUTS/RdRp_knitwork_thumb_site_2_impure_split4000_batch000_211013.sdf']

>  <fragmenstein_outcome>  (278) 
['acceptable']

>  <fragmenstein_mode>  (278) 
['expansion']

>  <HIPPO Pose ID>  (278) 
55056

>  <name>  (278) 
QXPKZAYBHAOLKZ-AWEZNQCLSA-N

>  <fragmenstein_runtime>  (278) 
[6.390786409378052]

>  <csv_name>  (278) 
RdRp_knitwork_thumb_site_2_impure_split4000_batch000.csv

>  <inchikey>  (278) 
QXPKZAYBHAOLKZ-AWEZNQCLSA-N

>  <original SMILES>  (278) 
O=S(=O)(CCc1cnoc1)N[C@H](c1cccnc1)C1CC1

>  <scratch_subdir>  (278) 
['/opt/xchem-fragalysis-2/maxwin/BulkDock/SCRATCH/211013/C1504-P17']

>  <tags>  (278) 
['Fragmenstein placed']

>  <distance_score>  (278) 
0.828643

>  <original ID>  (278) 
QXPKZAYBHAOLKZ-AWEZNQCLSA-N

>  <ref_mols>  (278) 
d0174a,d0615a

>  <SLURM_JOB_ID>  (278) 
211013

>  <ref_pdb>  (278) 
d0174a

$$$$
55057
     RDKit          3D

 21 23  0  0  0  0  0  0  0  0999 V2000
  -12.7765  -68.8338  -20.4076 O   0  0  0  0  0  0  0  0  0  0  0  0
  -13.6383  -69.9748  -20.2413 S   0  0  0  0  0  0  0  0  0  0  0  0
  -14.1678  -70.3336  -18.9375 O   0  0  0  0  0  0  0  0  0  0  0  0
  -15.0309  -69.8249  -21.3568 C   0  0  0  0  0  0  0  0  0  0  0  0
  -14.6328  -69.9681  -22.8149 C   0  0  0  0  0  0  0  0  0  0  0  0
  -15.7667  -70.0211  -23.7751 C   0  0  0  0  0  0  0  0  0  0  0  0
  -15.6836  -70.1298  -25.1831 C   0  0  0  0  0  0  0  0  0  0  0  0
  -16.8823  -70.0681  -25.7664 N   0  0  0  0  0  0  0  0  0  0  0  0
  -17.7888  -70.0017  -24.7259 O   0  0  0  0  0  0  0  0  0  0  0  0
  -17.1208  -70.0234  -23.5489 C   0  0  0  0  0  0  0  0  0  0  0  0
  -12.8870  -71.3581  -20.7964 N   0  0  0  0  0  0  0  0  0  0  0  0
  -11.4975  -71.3910  -21.3000 C   0  0  2  0  0  0  0  0  0  0  0  0
  -10.4162  -71.2552  -20.2443 C   0  0  0  0  0  0  0  0  0  0  0  0
  -10.4827  -72.0133  -19.0648 C   0  0  0  0  0  0  0  0  0  0  0  0
   -9.4039  -72.0489  -18.1842 C   0  0  0  0  0  0  0  0  0  0  0  0
   -8.2712  -71.3291  -18.5100 C   0  0  0  0  0  0  0  0  0  0  0  0
   -8.1690  -70.5639  -19.6122 N   0  0  0  0  0  0  0  0  0  0  0  0
   -9.2405  -70.5318  -20.4414 C   0  0  0  0  0  0  0  0  0  0  0  0
  -11.2949  -70.5488  -22.5331 C   0  0  0  0  0  0  0  0  0  0  0  0
  -10.1745  -70.8726  -23.5073 C   0  0  0  0  0  0  0  0  0  0  0  0
  -11.5941  -71.0683  -23.9249 C   0  0  0  0  0  0  0  0  0  0  0  0
  1  2  2  0
  2  3  2  0
  2  4  1  0
  4  5  1  0
  5  6  1  0
  6  7  1  0
  7  8  2  0
  8  9  1  0
  9 10  1  0
  2 11  1  0
 12 11  1  1
 12 13  1  0
 13 14  2  0
 14 15  1  0
 15 16  2  0
 16 17  1  0
 17 18  2  0
 12 19  1  0
 19 20  1  0
 20 21  1  0
 10  6  2  0
 18 13  1  0
 21 19  1  0
M  END
>  <SLURM_JOB_NAME>  (279) 
BulkDock.place:Flavi_NS5_RdRp:RdRp_knitwork_thumb_site_2_impure_split4000_batch000

>  <fragmenstein_error>  (279) 
['']

>  <HIPPO Compound ID>  (279) 
1504

>  <alias>  (279) 
None

>  <energy_score>  (279) 
-79.270305

>  <exports>  (279) 
['/opt/xchem-fragalysis-2/maxwin/BulkDock/OUTPUTS/RdRp_knitwork_thumb_site_2_impure_split4000_batch000_211013.sdf']

>  <fragmenstein_outcome>  (279) 
['acceptable']

>  <fragmenstein_mode>  (279) 
['expansion']

>  <HIPPO Pose ID>  (279) 
55057

>  <name>  (279) 
QXPKZAYBHAOLKZ-AWEZNQCLSA-N

>  <fragmenstein_runtime>  (279) 
[6.373226642608643]

>  <csv_name>  (279) 
RdRp_knitwork_thumb_site_2_impure_split4000_batch000.csv

>  <inchikey>  (279) 
QXPKZAYBHAOLKZ-AWEZNQCLSA-N

>  <original SMILES>  (279) 
O=S(=O)(CCc1cnoc1)N[C@H](c1cccnc1)C1CC1

>  <scratch_subdir>  (279) 
['/opt/xchem-fragalysis-2/maxwin/BulkDock/SCRATCH/211013/C1504-P50']

>  <tags>  (279) 
['Fragmenstein placed']

>  <distance_score>  (279) 
0.78101

>  <original ID>  (279) 
QXPKZAYBHAOLKZ-AWEZNQCLSA-N

>  <ref_mols>  (279) 
d0174a,d0615a

>  <SLURM_JOB_ID>  (279) 
211013

>  <ref_pdb>  (279) 
d0615a

$$$$
55058
     RDKit          3D

 24 26  0  0  0  0  0  0  0  0999 V2000
  -12.8958  -68.4726  -19.9384 O   0  0  0  0  0  0  0  0  0  0  0  0
  -13.7777  -69.5614  -20.2669 S   0  0  0  0  0  0  0  0  0  0  0  0
  -14.7373  -70.0478  -19.2983 O   0  0  0  0  0  0  0  0  0  0  0  0
  -14.5920  -69.1984  -21.8181 C   0  0  0  0  0  0  0  0  0  0  0  0
  -15.3911  -70.3790  -22.3262 C   0  0  0  0  0  0  0  0  0  0  0  0
  -15.7876  -70.2599  -23.7503 C   0  0  0  0  0  0  0  0  0  0  0  0
  -17.0694  -70.0271  -24.2926 C   0  0  0  0  0  0  0  0  0  0  0  0
  -17.0505  -69.9687  -25.6244 N   0  0  0  0  0  0  0  0  0  0  0  0
  -15.7398  -70.2275  -25.9852 O   0  0  0  0  0  0  0  0  0  0  0  0
  -14.9936  -70.3946  -24.8663 C   0  0  0  0  0  0  0  0  0  0  0  0
  -12.8368  -70.8810  -20.6413 N   0  0  0  0  0  0  0  0  0  0  0  0
  -11.5202  -70.6568  -21.2628 C   0  0  1  0  0  0  0  0  0  0  0  0
  -10.3617  -71.0661  -20.3623 C   0  0  0  0  0  0  0  0  0  0  0  0
  -10.4023  -72.2002  -19.5347 C   0  0  0  0  0  0  0  0  0  0  0  0
   -9.2916  -72.5706  -18.7707 C   0  0  0  0  0  0  0  0  0  0  0  0
   -8.1105  -71.8398  -18.8495 C   0  0  0  0  0  0  0  0  0  0  0  0
   -8.0455  -70.7259  -19.6772 C   0  0  0  0  0  0  0  0  0  0  0  0
   -9.1626  -70.3350  -20.4158 C   0  0  0  0  0  0  0  0  0  0  0  0
  -11.4104  -71.2820  -22.6402 C   0  0  0  0  0  0  0  0  0  0  0  0
  -10.4929  -70.7876  -23.5782 C   0  0  0  0  0  0  0  0  0  0  0  0
  -10.4172  -71.3437  -24.8496 C   0  0  0  0  0  0  0  0  0  0  0  0
  -11.2570  -72.4008  -25.1490 C   0  0  0  0  0  0  0  0  0  0  0  0
  -12.1406  -72.9253  -24.2718 N   0  0  0  0  0  0  0  0  0  0  0  0
  -12.1783  -72.3712  -23.0376 C   0  0  0  0  0  0  0  0  0  0  0  0
  1  2  2  0
  2  3  2  0
  2  4  1  0
  4  5  1  0
  5  6  1  0
  6  7  1  0
  7  8  2  0
  8  9  1  0
  9 10  1  0
  2 11  1  0
 12 11  1  1
 12 13  1  0
 13 14  2  0
 14 15  1  0
 15 16  2  0
 16 17  1  0
 17 18  2  0
 12 19  1  0
 19 20  2  0
 20 21  1  0
 21 22  2  0
 22 23  1  0
 23 24  2  0
 10  6  2  0
 18 13  1  0
 24 19  1  0
M  END
>  <SLURM_JOB_NAME>  (280) 
BulkDock.place:Flavi_NS5_RdRp:RdRp_knitwork_thumb_site_2_impure_split4000_batch000

>  <fragmenstein_error>  (280) 
['']

>  <HIPPO Compound ID>  (280) 
1548

>  <alias>  (280) 
None

>  <energy_score>  (280) 
-37.486879

>  <exports>  (280) 
['/opt/xchem-fragalysis-2/maxwin/BulkDock/OUTPUTS/RdRp_knitwork_thumb_site_2_impure_split4000_batch000_211013.sdf']

>  <fragmenstein_outcome>  (280) 
['acceptable']

>  <fragmenstein_mode>  (280) 
['expansion']

>  <HIPPO Pose ID>  (280) 
55058

>  <name>  (280) 
HLHAOIDDWWBQNL-KRWDZBQOSA-N

>  <fragmenstein_runtime>  (280) 
[5.372358798980713]

>  <csv_name>  (280) 
RdRp_knitwork_thumb_site_2_impure_split4000_batch000.csv

>  <inchikey>  (280) 
HLHAOIDDWWBQNL-KRWDZBQOSA-N

>  <original SMILES>  (280) 
O=S(=O)(CCc1cnoc1)N[C@@H](c1ccccc1)c1cccnc1

>  <scratch_subdir>  (280) 
['/opt/xchem-fragalysis-2/maxwin/BulkDock/SCRATCH/211013/C1548-P17']

>  <tags>  (280) 
['Fragmenstein placed']

>  <distance_score>  (280) 
0.80666

>  <original ID>  (280) 
HLHAOIDDWWBQNL-KRWDZBQOSA-N

>  <ref_mols>  (280) 
d0174a,d0615a

>  <SLURM_JOB_ID>  (280) 
211013

>  <ref_pdb>  (280) 
d0174a

$$$$
55059
     RDKit          3D

 24 26  0  0  0  0  0  0  0  0999 V2000
  -12.7162  -68.6130  -19.8352 O   0  0  0  0  0  0  0  0  0  0  0  0
  -13.7143  -69.5879  -20.1903 S   0  0  0  0  0  0  0  0  0  0  0  0
  -14.5406  -70.2073  -19.1743 O   0  0  0  0  0  0  0  0  0  0  0  0
  -14.7724  -68.8574  -21.4303 C   0  0  0  0  0  0  0  0  0  0  0  0
  -15.4510  -69.8526  -22.3437 C   0  0  0  0  0  0  0  0  0  0  0  0
  -14.8634  -70.0314  -23.6999 C   0  0  0  0  0  0  0  0  0  0  0  0
  -15.3917  -70.8488  -24.7248 C   0  0  0  0  0  0  0  0  0  0  0  0
  -14.6796  -70.7963  -25.8490 N   0  0  0  0  0  0  0  0  0  0  0  0
  -13.6415  -69.9226  -25.5751 O   0  0  0  0  0  0  0  0  0  0  0  0
  -13.7644  -69.4642  -24.3031 C   0  0  0  0  0  0  0  0  0  0  0  0
  -12.9609  -70.8510  -20.9573 N   0  0  0  0  0  0  0  0  0  0  0  0
  -11.5906  -70.6485  -21.4670 C   0  0  1  0  0  0  0  0  0  0  0  0
  -10.4964  -70.9576  -20.4472 C   0  0  0  0  0  0  0  0  0  0  0  0
  -10.6183  -71.9673  -19.4781 C   0  0  0  0  0  0  0  0  0  0  0  0
   -9.5474  -72.2894  -18.6370 C   0  0  0  0  0  0  0  0  0  0  0  0
   -8.3307  -71.6261  -18.7633 C   0  0  0  0  0  0  0  0  0  0  0  0
   -8.1921  -70.6202  -19.7115 C   0  0  0  0  0  0  0  0  0  0  0  0
   -9.2662  -70.2806  -20.5355 C   0  0  0  0  0  0  0  0  0  0  0  0
  -11.3509  -71.4108  -22.7594 C   0  0  0  0  0  0  0  0  0  0  0  0
  -10.4053  -70.9643  -23.6935 C   0  0  0  0  0  0  0  0  0  0  0  0
  -10.2109  -71.6583  -24.8816 C   0  0  0  0  0  0  0  0  0  0  0  0
  -10.9539  -72.8056  -25.0979 C   0  0  0  0  0  0  0  0  0  0  0  0
  -11.8481  -73.2970  -24.2137 N   0  0  0  0  0  0  0  0  0  0  0  0
  -12.0210  -72.5913  -23.0724 C   0  0  0  0  0  0  0  0  0  0  0  0
  1  2  2  0
  2  3  2  0
  2  4  1  0
  4  5  1  0
  5  6  1  0
  6  7  1  0
  7  8  2  0
  8  9  1  0
  9 10  1  0
  2 11  1  0
 12 11  1  1
 12 13  1  0
 13 14  2  0
 14 15  1  0
 15 16  2  0
 16 17  1  0
 17 18  2  0
 12 19  1  0
 19 20  2  0
 20 21  1  0
 21 22  2  0
 22 23  1  0
 23 24  2  0
 10  6  2  0
 18 13  1  0
 24 19  1  0
M  END
>  <SLURM_JOB_NAME>  (281) 
BulkDock.place:Flavi_NS5_RdRp:RdRp_knitwork_thumb_site_2_impure_split4000_batch000

>  <fragmenstein_error>  (281) 
['']

>  <HIPPO Compound ID>  (281) 
1548

>  <alias>  (281) 
None

>  <energy_score>  (281) 
-30.580906

>  <exports>  (281) 
['/opt/xchem-fragalysis-2/maxwin/BulkDock/OUTPUTS/RdRp_knitwork_thumb_site_2_impure_split4000_batch000_211013.sdf']

>  <fragmenstein_outcome>  (281) 
['acceptable']

>  <fragmenstein_mode>  (281) 
['expansion']

>  <HIPPO Pose ID>  (281) 
55059

>  <name>  (281) 
HLHAOIDDWWBQNL-KRWDZBQOSA-N

>  <fragmenstein_runtime>  (281) 
[4.454814910888672]

>  <csv_name>  (281) 
RdRp_knitwork_thumb_site_2_impure_split4000_batch000.csv

>  <inchikey>  (281) 
HLHAOIDDWWBQNL-KRWDZBQOSA-N

>  <original SMILES>  (281) 
O=S(=O)(CCc1cnoc1)N[C@@H](c1ccccc1)c1cccnc1

>  <scratch_subdir>  (281) 
['/opt/xchem-fragalysis-2/maxwin/BulkDock/SCRATCH/211013/C1548-P50']

>  <tags>  (281) 
['Fragmenstein placed']

>  <distance_score>  (281) 
0.814399

>  <original ID>  (281) 
HLHAOIDDWWBQNL-KRWDZBQOSA-N

>  <ref_mols>  (281) 
d0174a,d0615a

>  <SLURM_JOB_ID>  (281) 
211013

>  <ref_pdb>  (281) 
d0615a

$$$$
55351
     RDKit          3D

 19 20  0  0  0  0  0  0  0  0999 V2000
   -2.2539  -69.2007  -22.1393 C   0  0  0  0  0  0  0  0  0  0  0  0
   -2.5774  -68.3751  -20.9078 C   0  0  0  0  0  0  0  0  0  0  0  0
   -2.8015  -69.1274  -19.5933 C   0  0  1  0  0  0  0  0  0  0  0  0
   -4.2191  -69.4610  -19.2831 N   0  0  0  0  0  0  0  0  0  0  0  0
   -5.2372  -70.3009  -20.3148 S   0  0  0  0  0  0  0  0  0  0  0  0
   -4.5745  -71.4202  -20.9251 O   0  0  0  0  0  0  0  0  0  0  0  0
   -6.0066  -69.3277  -21.0373 O   0  0  0  0  0  0  0  0  0  0  0  0
   -6.4336  -71.0531  -19.3586 C   0  0  0  0  0  0  0  0  0  0  0  0
   -6.1574  -71.7901  -18.2366 C   0  0  0  0  0  0  0  0  0  0  0  0
   -7.3095  -72.2272  -17.6684 O   0  0  0  0  0  0  0  0  0  0  0  0
   -8.3307  -71.8024  -18.4643 C   0  0  0  0  0  0  0  0  0  0  0  0
   -9.6810  -72.0580  -18.2342 C   0  0  0  0  0  0  0  0  0  0  0  0
  -10.5866  -71.5396  -19.1642 C   0  0  0  0  0  0  0  0  0  0  0  0
  -10.1444  -70.8039  -20.2644 C   0  0  0  0  0  0  0  0  0  0  0  0
   -8.7783  -70.5592  -20.4670 C   0  0  0  0  0  0  0  0  0  0  0  0
   -7.8434  -71.0715  -19.5437 C   0  0  0  0  0  0  0  0  0  0  0  0
   -1.7976  -70.2309  -19.1850 C   0  0  0  0  0  0  0  0  0  0  0  0
   -1.9921  -71.6172  -19.7930 C   0  0  0  0  0  0  0  0  0  0  0  0
   -1.7626  -70.3951  -17.6550 C   0  0  0  0  0  0  0  0  0  0  0  0
  1  2  1  0
  3  2  1  6
  3  4  1  0
  4  5  1  0
  5  6  2  0
  5  7  2  0
  5  8  1  0
  8  9  2  0
  9 10  1  0
 10 11  1  0
 11 12  2  0
 12 13  1  0
 13 14  2  0
 14 15  1  0
 15 16  2  0
  3 17  1  0
 17 18  1  0
 17 19  1  0
 16  8  1  0
 16 11  1  0
M  END
>  <SLURM_JOB_NAME>  (282) 
BulkDock.place:Flavi_NS5_RdRp:RdRp_knitwork_thumb_site_2_impure_split4000_batch000

>  <fragmenstein_error>  (282) 
['']

>  <HIPPO Compound ID>  (282) 
3977

>  <alias>  (282) 
None

>  <energy_score>  (282) 
-56.966573

>  <exports>  (282) 
['/opt/xchem-fragalysis-2/maxwin/BulkDock/OUTPUTS/RdRp_knitwork_thumb_site_2_impure_split4000_batch000_211013.sdf']

>  <fragmenstein_outcome>  (282) 
['acceptable']

>  <fragmenstein_mode>  (282) 
['expansion']

>  <HIPPO Pose ID>  (282) 
55351

>  <name>  (282) 
MRJZKRWISJPOMU-GFCCVEGCSA-N

>  <fragmenstein_runtime>  (282) 
[5.679510593414307]

>  <csv_name>  (282) 
RdRp_knitwork_thumb_site_2_impure_split4000_batch000.csv

>  <inchikey>  (282) 
MRJZKRWISJPOMU-GFCCVEGCSA-N

>  <original SMILES>  (282) 
CC[C@@H](NS(=O)(=O)c1coc2ccccc12)C(C)C

>  <scratch_subdir>  (282) 
['/opt/xchem-fragalysis-2/maxwin/BulkDock/SCRATCH/211013/C3977-P59']

>  <tags>  (282) 
['Fragmenstein placed']

>  <distance_score>  (282) 
0.949884

>  <original ID>  (282) 
MRJZKRWISJPOMU-GFCCVEGCSA-N

>  <ref_mols>  (282) 
d0174a,d0787a

>  <SLURM_JOB_ID>  (282) 
211013

>  <ref_pdb>  (282) 
d0787a

$$$$
55363
     RDKit          3D

 18 19  0  0  0  0  0  0  0  0999 V2000
   -2.2442  -67.2638  -20.8767 C   0  0  0  0  0  0  0  0  0  0  0  0
   -1.9463  -68.4540  -19.9909 C   0  0  0  0  0  0  0  0  0  0  0  0
   -2.8763  -69.6329  -20.2735 C   0  0  1  0  0  0  0  0  0  0  0  0
   -2.4183  -70.8143  -19.5152 C   0  0  0  0  0  0  0  0  0  0  0  0
   -2.1520  -71.7530  -18.8886 N   0  0  0  0  0  0  0  0  0  0  0  0
   -4.2774  -69.2849  -19.8972 N   0  0  0  0  0  0  0  0  0  0  0  0
   -5.4448  -70.3190  -20.5168 S   0  0  0  0  0  0  0  0  0  0  0  0
   -4.7897  -71.4949  -21.0310 O   0  0  0  0  0  0  0  0  0  0  0  0
   -6.3523  -69.5134  -21.2882 O   0  0  0  0  0  0  0  0  0  0  0  0
   -6.4801  -70.9632  -19.3363 C   0  0  0  0  0  0  0  0  0  0  0  0
   -6.0762  -71.6223  -18.2064 C   0  0  0  0  0  0  0  0  0  0  0  0
   -7.1607  -72.0583  -17.5122 O   0  0  0  0  0  0  0  0  0  0  0  0
   -8.2648  -71.7273  -18.2390 C   0  0  0  0  0  0  0  0  0  0  0  0
   -9.5786  -72.0278  -17.8856 C   0  0  0  0  0  0  0  0  0  0  0  0
  -10.5797  -71.6188  -18.7727 C   0  0  0  0  0  0  0  0  0  0  0  0
  -10.2641  -70.9465  -19.9531 C   0  0  0  0  0  0  0  0  0  0  0  0
   -8.9325  -70.6572  -20.2801 C   0  0  0  0  0  0  0  0  0  0  0  0
   -7.9024  -71.0509  -19.3974 C   0  0  0  0  0  0  0  0  0  0  0  0
  1  2  1  0
  3  2  1  1
  3  4  1  0
  4  5  3  0
  3  6  1  0
  6  7  1  0
  7  8  2  0
  7  9  2  0
  7 10  1  0
 10 11  2  0
 11 12  1  0
 12 13  1  0
 13 14  2  0
 14 15  1  0
 15 16  2  0
 16 17  1  0
 17 18  2  0
 18 10  1  0
 18 13  1  0
M  END
>  <SLURM_JOB_NAME>  (283) 
BulkDock.place:Flavi_NS5_RdRp:RdRp_knitwork_thumb_site_2_impure_split4000_batch000

>  <fragmenstein_error>  (283) 
['']

>  <HIPPO Compound ID>  (283) 
4080

>  <alias>  (283) 
None

>  <energy_score>  (283) 
-59.233891

>  <exports>  (283) 
['/opt/xchem-fragalysis-2/maxwin/BulkDock/OUTPUTS/RdRp_knitwork_thumb_site_2_impure_split4000_batch000_211013.sdf']

>  <fragmenstein_outcome>  (283) 
['acceptable']

>  <fragmenstein_mode>  (283) 
['expansion']

>  <HIPPO Pose ID>  (283) 
55363

>  <name>  (283) 
NPAXVXPYKGJGMV-VIFPVBQESA-N

>  <fragmenstein_runtime>  (283) 
[4.193237066268921]

>  <csv_name>  (283) 
RdRp_knitwork_thumb_site_2_impure_split4000_batch000.csv

>  <inchikey>  (283) 
NPAXVXPYKGJGMV-VIFPVBQESA-N

>  <original SMILES>  (283) 
CC[C@@H](C#N)NS(=O)(=O)c1coc2ccccc12

>  <scratch_subdir>  (283) 
['/opt/xchem-fragalysis-2/maxwin/BulkDock/SCRATCH/211013/C4080-P59']

>  <tags>  (283) 
['Fragmenstein placed']

>  <distance_score>  (283) 
0.912493

>  <original ID>  (283) 
NPAXVXPYKGJGMV-VIFPVBQESA-N

>  <ref_mols>  (283) 
d0174a,d0787a

>  <SLURM_JOB_ID>  (283) 
211013

>  <ref_pdb>  (283) 
d0787a

$$$$
58736
     RDKit          3D

 14 15  0  0  0  0  0  0  0  0999 V2000
  -14.0069  -69.7924  -18.8687 O   0  0  0  0  0  0  0  0  0  0  0  0
  -13.1931  -69.8307  -19.7939 C   0  0  0  0  0  0  0  0  0  0  0  0
  -11.7844  -70.1364  -19.4575 C   0  0  0  0  0  0  0  0  0  0  0  0
  -10.9012  -70.8557  -20.1678 C   0  0  0  0  0  0  0  0  0  0  0  0
   -9.5766  -71.0944  -19.5562 C   0  0  0  0  0  0  0  0  0  0  0  0
   -9.4473  -71.8037  -18.3628 C   0  0  0  0  0  0  0  0  0  0  0  0
   -8.1726  -72.0246  -17.8467 C   0  0  0  0  0  0  0  0  0  0  0  0
   -7.0691  -71.5311  -18.5316 C   0  0  0  0  0  0  0  0  0  0  0  0
   -7.2881  -70.8340  -19.7084 C   0  0  0  0  0  0  0  0  0  0  0  0
   -8.5137  -70.6048  -20.2309 N   0  0  0  0  0  0  0  0  0  0  0  0
  -11.0973  -71.5142  -21.5076 C   0  0  0  0  0  0  0  0  0  0  0  0
  -11.8982  -70.7520  -22.5580 C   0  0  0  0  0  0  0  0  0  0  0  0
  -13.3683  -70.5731  -22.2058 C   0  0  0  0  0  0  0  0  0  0  0  0
  -13.5854  -69.4628  -21.1988 C   0  0  0  0  0  0  0  0  0  0  0  0
  1  2  2  0
  2  3  1  0
  3  4  2  0
  4  5  1  0
  5  6  2  0
  6  7  1  0
  7  8  2  0
  8  9  1  0
  9 10  2  0
  4 11  1  0
 11 12  1  0
 12 13  1  0
 13 14  1  0
 14  2  1  0
 10  5  1  0
M  END
>  <SLURM_JOB_NAME>  (284) 
BulkDock.place:Flavi_NS5_RdRp:RdRp_knitwork_thumb_site_2_impure_split4000_batch000

>  <fragmenstein_error>  (284) 
['']

>  <HIPPO Compound ID>  (284) 
6954

>  <alias>  (284) 
None

>  <energy_score>  (284) 
-25.266587

>  <exports>  (284) 
['/opt/xchem-fragalysis-2/maxwin/BulkDock/OUTPUTS/RdRp_knitwork_thumb_site_2_impure_split4000_batch000_211013.sdf']

>  <fragmenstein_outcome>  (284) 
['acceptable']

>  <fragmenstein_mode>  (284) 
['expansion']

>  <HIPPO Pose ID>  (284) 
58736

>  <name>  (284) 
PXNMOXNSHAKQAT-UHFFFAOYSA-N

>  <fragmenstein_runtime>  (284) 
[1.4208226203918457]

>  <csv_name>  (284) 
RdRp_knitwork_thumb_site_2_impure_split4000_batch000.csv

>  <inchikey>  (284) 
PXNMOXNSHAKQAT-UHFFFAOYSA-N

>  <original SMILES>  (284) 
O=C1C=C(c2ccccn2)CCCC1

>  <scratch_subdir>  (284) 
['/opt/xchem-fragalysis-2/maxwin/BulkDock/SCRATCH/211013/C6954-P45']

>  <tags>  (284) 
['Fragmenstein placed']

>  <distance_score>  (284) 
0.980579

>  <original ID>  (284) 
PXNMOXNSHAKQAT-UHFFFAOYSA-N

>  <ref_mols>  (284) 
d0566a,d0615a

>  <SLURM_JOB_ID>  (284) 
211013

>  <ref_pdb>  (284) 
d0566a

$$$$
58738
     RDKit          3D

 14 15  0  0  0  0  0  0  0  0999 V2000
  -14.1328  -69.7704  -18.7807 O   0  0  0  0  0  0  0  0  0  0  0  0
  -13.3274  -69.8210  -19.7136 C   0  0  0  0  0  0  0  0  0  0  0  0
  -11.9111  -70.1173  -19.3912 C   0  0  0  0  0  0  0  0  0  0  0  0
  -11.0134  -70.8023  -20.1187 C   0  0  0  0  0  0  0  0  0  0  0  0
   -9.6804  -71.0296  -19.5183 C   0  0  0  0  0  0  0  0  0  0  0  0
   -9.5289  -71.7664  -18.3448 C   0  0  0  0  0  0  0  0  0  0  0  0
   -8.2449  -71.9880  -17.8516 C   0  0  0  0  0  0  0  0  0  0  0  0
   -7.1548  -71.4658  -18.5375 C   0  0  0  0  0  0  0  0  0  0  0  0
   -7.3956  -70.7382  -19.6909 C   0  0  0  0  0  0  0  0  0  0  0  0
   -8.6305  -70.5114  -20.1923 N   0  0  0  0  0  0  0  0  0  0  0  0
  -11.1914  -71.4346  -21.4744 C   0  0  0  0  0  0  0  0  0  0  0  0
  -12.0302  -70.6833  -22.5018 C   0  0  0  0  0  0  0  0  0  0  0  0
  -13.5006  -70.5671  -22.1285 C   0  0  0  0  0  0  0  0  0  0  0  0
  -13.7452  -69.4685  -21.1155 C   0  0  0  0  0  0  0  0  0  0  0  0
  1  2  2  0
  2  3  1  0
  3  4  2  0
  4  5  1  0
  5  6  2  0
  6  7  1  0
  7  8  2  0
  8  9  1  0
  9 10  2  0
  4 11  1  0
 11 12  1  0
 12 13  1  0
 13 14  1  0
 14  2  1  0
 10  5  1  0
M  END
>  <SLURM_JOB_NAME>  (285) 
BulkDock.place:Flavi_NS5_RdRp:RdRp_knitwork_thumb_site_2_impure_split4000_batch000

>  <fragmenstein_error>  (285) 
['']

>  <HIPPO Compound ID>  (285) 
6954

>  <alias>  (285) 
None

>  <energy_score>  (285) 
-25.183749

>  <exports>  (285) 
['/opt/xchem-fragalysis-2/maxwin/BulkDock/OUTPUTS/RdRp_knitwork_thumb_site_2_impure_split4000_batch000_211013.sdf']

>  <fragmenstein_outcome>  (285) 
['acceptable']

>  <fragmenstein_mode>  (285) 
['expansion']

>  <HIPPO Pose ID>  (285) 
58738

>  <name>  (285) 
PXNMOXNSHAKQAT-UHFFFAOYSA-N

>  <fragmenstein_runtime>  (285) 
[1.4950191974639893]

>  <csv_name>  (285) 
RdRp_knitwork_thumb_site_2_impure_split4000_batch000.csv

>  <inchikey>  (285) 
PXNMOXNSHAKQAT-UHFFFAOYSA-N

>  <original SMILES>  (285) 
O=C1C=C(c2ccccn2)CCCC1

>  <scratch_subdir>  (285) 
['/opt/xchem-fragalysis-2/maxwin/BulkDock/SCRATCH/211013/C6954-P50']

>  <tags>  (285) 
['Fragmenstein placed']

>  <distance_score>  (285) 
0.981192

>  <original ID>  (285) 
PXNMOXNSHAKQAT-UHFFFAOYSA-N

>  <ref_mols>  (285) 
d0566a,d0615a

>  <SLURM_JOB_ID>  (285) 
211013

>  <ref_pdb>  (285) 
d0615a

$$$$
