ver_1.2
     RDKit          3D

 22 23  0  0  0  0  0  0  0  0999 V2000
   -0.2501   -1.0164   -0.6189 C   0  0  0  0  0  0  0  0  0  0  0  0
   -0.7007   -0.4023    0.6365 N   0  0  0  0  0  0  0  0  0  0  0  0
    0.3146    0.0171    1.5941 C   0  0  0  0  0  0  0  0  0  0  0  0
    0.7802    1.4223    1.4093 C   0  0  0  0  0  0  0  0  0  0  0  0
    1.3834    1.6687    0.1000 N   0  0  0  0  0  0  0  0  0  0  0  0
    2.5235    0.9535   -0.3102 C   0  0  0  0  0  0  0  0  0  0  0  0
    2.6862    0.2287    0.7200 O   0  0  0  0  0  0  0  0  0  0  0  0
    3.2289    1.1096   -1.6089 C   0  0  0  0  0  0  0  0  0  0  0  0
    4.4486   -0.0071   -1.4352 C   0  0  0  0  0  0  0  0  0  0  0  0
    5.4456    0.6511   -0.9189 C   0  0  0  0  0  0  0  0  0  0  0  0
    6.5800   -0.0620   -0.6793 C   0  0  0  0  0  0  0  0  0  0  0  0
    6.7464   -1.1876   -0.8854 N   0  0  0  0  0  0  0  0  0  0  0  0
    5.0588   -1.6418   -1.6038 S   0  0  0  0  0  0  0  0  0  0  0  0
   -2.0061   -0.1248    1.1263 C   0  0  0  0  0  0  0  0  0  0  0  0
   -2.3395    0.4155    2.2388 O   0  0  0  0  0  0  0  0  0  0  0  0
   -3.3523   -0.3406    0.5787 C   0  0  0  0  0  0  0  0  0  0  0  0
   -3.8275   -1.6268    0.4683 C   0  0  0  0  0  0  0  0  0  0  0  0
   -5.0478   -1.8656   -0.0294 N   0  0  0  0  0  0  0  0  0  0  0  0
   -5.8730   -0.8651   -0.4467 C   0  0  0  0  0  0  0  0  0  0  0  0
   -5.4608    0.4446   -0.3642 C   0  0  0  0  0  0  0  0  0  0  0  0
   -6.1402    1.5906   -0.7297 O   0  0  0  0  0  0  0  0  0  0  0  0
   -4.1983    0.6383    0.1544 C   0  0  0  0  0  0  0  0  0  0  0  0
  1  2  1  0
  2  3  1  0
  3  4  1  0
  4  5  1  0
  5  6  1  0
  6  7  2  0
  6  8  1  0
  8  9  1  0
  9 10  2  0
 10 11  1  0
 11 12  2  0
 12 13  1  0
  2 14  1  0
 14 15  2  0
 14 16  1  0
 16 17  2  0
 17 18  1  0
 18 19  2  0
 19 20  1  0
 20 21  1  0
 20 22  2  0
 13  9  1  0
 22 16  1  0
M  END
>  <ref_url>  (1) 
https://github.com/mwinokan/BulkDock

>  <submitter_name>  (1) 
Max Winokan

>  <submitter_email>  (1) 
max.winokan@diamond.ac.uk

>  <submitter_institution>  (1) 
DLS

>  <generation_date>  (1) 
2024-12-02

>  <method>  (1) 
Knitwork_Primer_Impure

>  <SLURM_JOB_ID>  (1) 
SLURM_JOB_ID

>  <SLURM_JOB_NAME>  (1) 
SLURM_JOB_NAME

>  <csv_name>  (1) 
csv_name

>  <scratch_subdir>  (1) 
scratch_subdir

>  <fragmenstein_runtime>  (1) 
fragmenstein_runtime

>  <fragmenstein_outcome>  (1) 
fragmenstein_outcome

>  <fragmenstein_mode>  (1) 
fragmenstein_mode

>  <fragmenstein_error>  (1) 
fragmenstein_error

>  <exports>  (1) 
exports

>  <HIPPO Pose ID>  (1) 
HIPPO Pose ID

>  <HIPPO Compound ID>  (1) 
HIPPO Compound ID

>  <smiles>  (1) 
smiles

>  <ref_pdb>  (1) 
protein reference

>  <ref_mols>  (1) 
fragment inspirations

>  <original ID>  (1) 
original ID

>  <compound inchikey>  (1) 
compound inchikey

$$$$
35304
     RDKit          3D

 22 23  0  0  0  0  0  0  0  0999 V2000
  -16.3316  -42.1426  -26.1034 C   0  0  0  0  0  0  0  0  0  0  0  0
  -15.4505  -41.4334  -25.1906 N   0  0  0  0  0  0  0  0  0  0  0  0
  -14.4614  -42.2243  -24.4483 C   0  0  0  0  0  0  0  0  0  0  0  0
  -14.9818  -43.5094  -23.8051 C   0  0  0  0  0  0  0  0  0  0  0  0
  -16.2735  -43.3247  -23.1722 N   0  0  0  0  0  0  0  0  0  0  0  0
  -16.6798  -44.3818  -22.0545 C   0  0  0  0  0  0  0  0  0  0  0  0
  -16.3929  -45.4594  -22.6031 O   0  0  0  0  0  0  0  0  0  0  0  0
  -18.0369  -43.5832  -22.0825 C   0  0  0  0  0  0  0  0  0  0  0  0
  -18.0300  -42.4186  -21.1380 C   0  0  0  0  0  0  0  0  0  0  0  0
  -18.0371  -41.0585  -21.3859 C   0  0  0  0  0  0  0  0  0  0  0  0
  -18.0969  -40.3321  -20.1605 C   0  0  0  0  0  0  0  0  0  0  0  0
  -18.1267  -41.0496  -19.0421 N   0  0  0  0  0  0  0  0  0  0  0  0
  -18.0695  -42.6551  -19.4389 S   0  0  0  0  0  0  0  0  0  0  0  0
  -15.4510  -40.0616  -24.9475 C   0  0  0  0  0  0  0  0  0  0  0  0
  -14.6385  -39.5483  -24.1689 O   0  0  0  0  0  0  0  0  0  0  0  0
  -16.4469  -39.1325  -25.5257 C   0  0  0  0  0  0  0  0  0  0  0  0
  -17.1700  -39.2511  -26.7045 C   0  0  0  0  0  0  0  0  0  0  0  0
  -18.2333  -38.4557  -27.0329 N   0  0  0  0  0  0  0  0  0  0  0  0
  -18.5035  -37.4462  -26.1830 C   0  0  0  0  0  0  0  0  0  0  0  0
  -17.7503  -37.1765  -25.0662 C   0  0  0  0  0  0  0  0  0  0  0  0
  -17.9953  -36.0555  -24.3627 O   0  0  0  0  0  0  0  0  0  0  0  0
  -16.7423  -38.0391  -24.7082 C   0  0  0  0  0  0  0  0  0  0  0  0
  1  2  1  0
  2  3  1  0
  3  4  1  0
  4  5  1  0
  5  6  1  0
  6  7  2  0
  6  8  1  0
  8  9  1  0
  9 10  2  0
 10 11  1  0
 11 12  2  0
 12 13  1  0
  2 14  1  0
 14 15  2  0
 14 16  1  0
 16 17  2  0
 17 18  1  0
 18 19  2  0
 19 20  1  0
 20 21  1  0
 20 22  2  0
 13  9  1  0
 22 16  1  0
M  END
>  <csv_name>  (1) 
RdRp_knitwork_primer_grip_n_pocket_impure_split4000_batch003.csv

>  <exports>  (1) 
['/opt/xchem-fragalysis-2/maxwin/BulkDock/OUTPUTS/RdRp_knitwork_primer_grip_n_pocket_impure_split4000_batch003_211035.sdf']

>  <original SMILES>  (1) 
CN(CCNC(=O)Cc1ccns1)C(=O)c1cncc(O)c1

>  <tags>  (1) 
['Fragmenstein placed']

>  <alias>  (1) 
None

>  <fragmenstein_outcome>  (1) 
['acceptable']

>  <HIPPO Compound ID>  (1) 
8409

>  <name>  (1) 
VRSMKDNZJPNONB-UHFFFAOYSA-N

>  <fragmenstein_mode>  (1) 
['expansion']

>  <ref_pdb>  (1) 
d0191a

>  <HIPPO Pose ID>  (1) 
35304

>  <distance_score>  (1) 
0.96474

>  <original ID>  (1) 
VRSMKDNZJPNONB-UHFFFAOYSA-N

>  <ref_mols>  (1) 
d0160a,d0191a,d0472a

>  <SLURM_JOB_NAME>  (1) 
BulkDock.place:Flavi_NS5_RdRp:RdRp_knitwork_primer_grip_n_pocket_impure_split4000_batch003

>  <fragmenstein_runtime>  (1) 
[13.332883596420288]

>  <fragmenstein_error>  (1) 
['']

>  <energy_score>  (1) 
-218.831072

>  <inchikey>  (1) 
VRSMKDNZJPNONB-UHFFFAOYSA-N

>  <SLURM_JOB_ID>  (1) 
211035

>  <scratch_subdir>  (1) 
['/opt/xchem-fragalysis-2/maxwin/BulkDock/SCRATCH/211035/C8409-P19']

$$$$
35318
     RDKit          3D

 22 23  0  0  0  0  0  0  0  0999 V2000
  -16.7011  -41.7317  -26.0043 C   0  0  0  0  0  0  0  0  0  0  0  0
  -15.7008  -41.0958  -25.1586 N   0  0  0  0  0  0  0  0  0  0  0  0
  -14.6618  -41.9358  -24.5445 C   0  0  0  0  0  0  0  0  0  0  0  0
  -15.0907  -43.3181  -24.0391 C   0  0  0  0  0  0  0  0  0  0  0  0
  -16.2983  -43.3197  -23.2297 N   0  0  0  0  0  0  0  0  0  0  0  0
  -16.3185  -42.3384  -21.9605 C   0  0  0  0  0  0  0  0  0  0  0  0
  -15.2047  -42.5572  -21.4572 O   0  0  0  0  0  0  0  0  0  0  0  0
  -17.7050  -43.0443  -21.6918 C   0  0  0  0  0  0  0  0  0  0  0  0
  -18.8449  -42.4354  -22.4585 C   0  0  0  0  0  0  0  0  0  0  0  0
  -19.9521  -43.0520  -23.0101 C   0  0  0  0  0  0  0  0  0  0  0  0
  -20.8284  -42.0832  -23.5725 C   0  0  0  0  0  0  0  0  0  0  0  0
  -20.4354  -40.8153  -23.5210 N   0  0  0  0  0  0  0  0  0  0  0  0
  -18.9950  -40.7453  -22.7039 S   0  0  0  0  0  0  0  0  0  0  0  0
  -15.6250  -39.7291  -24.8624 C   0  0  0  0  0  0  0  0  0  0  0  0
  -14.7427  -39.2638  -24.1340 O   0  0  0  0  0  0  0  0  0  0  0  0
  -16.6526  -38.7640  -25.3096 C   0  0  0  0  0  0  0  0  0  0  0  0
  -17.3198  -38.7630  -26.5254 C   0  0  0  0  0  0  0  0  0  0  0  0
  -18.4093  -37.9858  -26.7929 N   0  0  0  0  0  0  0  0  0  0  0  0
  -18.7889  -37.1356  -25.8053 C   0  0  0  0  0  0  0  0  0  0  0  0
  -18.1037  -36.9738  -24.6180 C   0  0  0  0  0  0  0  0  0  0  0  0
  -18.5078  -36.0213  -23.7356 O   0  0  0  0  0  0  0  0  0  0  0  0
  -17.0302  -37.8041  -24.3598 C   0  0  0  0  0  0  0  0  0  0  0  0
  1  2  1  0
  2  3  1  0
  3  4  1  0
  4  5  1  0
  5  6  1  0
  6  7  2  0
  6  8  1  0
  8  9  1  0
  9 10  2  0
 10 11  1  0
 11 12  2  0
 12 13  1  0
  2 14  1  0
 14 15  2  0
 14 16  1  0
 16 17  2  0
 17 18  1  0
 18 19  2  0
 19 20  1  0
 20 21  1  0
 20 22  2  0
 13  9  1  0
 22 16  1  0
M  END
>  <csv_name>  (2) 
RdRp_knitwork_primer_grip_n_pocket_impure_split4000_batch003.csv

>  <exports>  (2) 
['/opt/xchem-fragalysis-2/maxwin/BulkDock/OUTPUTS/RdRp_knitwork_primer_grip_n_pocket_impure_split4000_batch003_211035.sdf']

>  <original SMILES>  (2) 
CN(CCNC(=O)Cc1ccns1)C(=O)c1cncc(O)c1

>  <tags>  (2) 
['Fragmenstein placed']

>  <alias>  (2) 
None

>  <fragmenstein_outcome>  (2) 
['acceptable']

>  <HIPPO Compound ID>  (2) 
8409

>  <name>  (2) 
VRSMKDNZJPNONB-UHFFFAOYSA-N

>  <fragmenstein_mode>  (2) 
['expansion']

>  <ref_pdb>  (2) 
d0472a

>  <HIPPO Pose ID>  (2) 
35318

>  <distance_score>  (2) 
0.91945

>  <original ID>  (2) 
VRSMKDNZJPNONB-UHFFFAOYSA-N

>  <ref_mols>  (2) 
d0191a,d0472a

>  <SLURM_JOB_NAME>  (2) 
BulkDock.place:Flavi_NS5_RdRp:RdRp_knitwork_primer_grip_n_pocket_impure_split4000_batch003

>  <fragmenstein_runtime>  (2) 
[9.172364711761475]

>  <fragmenstein_error>  (2) 
['']

>  <energy_score>  (2) 
-221.173291

>  <inchikey>  (2) 
VRSMKDNZJPNONB-UHFFFAOYSA-N

>  <SLURM_JOB_ID>  (2) 
211035

>  <scratch_subdir>  (2) 
['/opt/xchem-fragalysis-2/maxwin/BulkDock/SCRATCH/211035/C8409-P42']

$$$$
35477
     RDKit          3D

 11 12  0  0  0  0  0  0  0  0999 V2000
  -15.8922  -41.9034  -25.4402 C   0  0  0  0  0  0  0  0  0  0  0  0
  -16.3858  -42.3490  -26.6539 C   0  0  0  0  0  0  0  0  0  0  0  0
  -17.0732  -41.5851  -27.5283 N   0  0  0  0  0  0  0  0  0  0  0  0
  -17.2744  -40.3030  -27.1610 C   0  0  0  0  0  0  0  0  0  0  0  0
  -16.8687  -39.7632  -25.9494 C   0  0  0  0  0  0  0  0  0  0  0  0
  -17.3519  -38.4526  -25.5665 C   0  0  0  0  0  0  0  0  0  0  0  0
  -18.2786  -37.7002  -26.1430 N   0  0  0  0  0  0  0  0  0  0  0  0
  -18.4889  -36.7037  -25.2215 C   0  0  0  0  0  0  0  0  0  0  0  0
  -17.6626  -36.8723  -24.1417 C   0  0  0  0  0  0  0  0  0  0  0  0
  -16.9236  -37.9908  -24.3497 O   0  0  0  0  0  0  0  0  0  0  0  0
  -16.1347  -40.5839  -25.0866 C   0  0  0  0  0  0  0  0  0  0  0  0
  1  2  2  0
  2  3  1  0
  3  4  2  0
  4  5  1  0
  5  6  1  0
  6  7  2  0
  7  8  1  0
  8  9  2  0
  9 10  1  0
  5 11  2  0
 11  1  1  0
 10  6  1  0
M  END
>  <csv_name>  (3) 
RdRp_knitwork_primer_grip_n_pocket_impure_split4000_batch005.csv

>  <exports>  (3) 
['/opt/xchem-fragalysis-2/maxwin/BulkDock/OUTPUTS/RdRp_knitwork_primer_grip_n_pocket_impure_split4000_batch005_211037.sdf']

>  <original SMILES>  (3) 
c1cncc(-c2ncco2)c1

>  <tags>  (3) 
['Fragmenstein placed']

>  <alias>  (3) 
None

>  <fragmenstein_outcome>  (3) 
['acceptable']

>  <HIPPO Compound ID>  (3) 
9110

>  <name>  (3) 
AWNUFCKXIZAWBG-UHFFFAOYSA-N

>  <fragmenstein_mode>  (3) 
['expansion']

>  <ref_pdb>  (3) 
d0160a

>  <HIPPO Pose ID>  (3) 
35477

>  <distance_score>  (3) 
0.999925

>  <original ID>  (3) 
AWNUFCKXIZAWBG-UHFFFAOYSA-N

>  <ref_mols>  (3) 
d0160a,d0191a

>  <SLURM_JOB_NAME>  (3) 
BulkDock.place:Flavi_NS5_RdRp:RdRp_knitwork_primer_grip_n_pocket_impure_split4000_batch005

>  <fragmenstein_runtime>  (3) 
[1.352545976638794]

>  <fragmenstein_error>  (3) 
['']

>  <energy_score>  (3) 
-13.148205

>  <inchikey>  (3) 
AWNUFCKXIZAWBG-UHFFFAOYSA-N

>  <SLURM_JOB_ID>  (3) 
211037

>  <scratch_subdir>  (3) 
['/opt/xchem-fragalysis-2/maxwin/BulkDock/SCRATCH/211037/C9110-P12']

$$$$
35482
     RDKit          3D

 11 12  0  0  0  0  0  0  0  0999 V2000
  -16.0852  -42.5078  -25.5958 C   0  0  0  0  0  0  0  0  0  0  0  0
  -15.2235  -41.4578  -25.3230 C   0  0  0  0  0  0  0  0  0  0  0  0
  -15.6348  -40.1555  -25.5728 C   0  0  0  0  0  0  0  0  0  0  0  0
  -16.9233  -39.9463  -26.0663 C   0  0  0  0  0  0  0  0  0  0  0  0
  -17.5128  -38.6481  -25.9197 N   0  0  0  0  0  0  0  0  0  0  0  0
  -17.0508  -37.6312  -25.1061 C   0  0  0  0  0  0  0  0  0  0  0  0
  -18.1019  -36.7761  -24.8873 C   0  0  0  0  0  0  0  0  0  0  0  0
  -19.1327  -37.2793  -25.6857 C   0  0  0  0  0  0  0  0  0  0  0  0
  -18.7629  -38.3463  -26.3977 N   0  0  0  0  0  0  0  0  0  0  0  0
  -17.7371  -40.9704  -26.4441 N   0  0  0  0  0  0  0  0  0  0  0  0
  -17.3067  -42.2165  -26.1689 C   0  0  0  0  0  0  0  0  0  0  0  0
  1  2  2  0
  2  3  1  0
  3  4  2  0
  4  5  1  0
  5  6  1  0
  6  7  2  0
  7  8  1  0
  8  9  2  0
  4 10  1  0
 10 11  2  0
 11  1  1  0
  9  5  1  0
M  END
>  <csv_name>  (4) 
RdRp_knitwork_primer_grip_n_pocket_impure_split4000_batch005.csv

>  <exports>  (4) 
['/opt/xchem-fragalysis-2/maxwin/BulkDock/OUTPUTS/RdRp_knitwork_primer_grip_n_pocket_impure_split4000_batch005_211037.sdf']

>  <original SMILES>  (4) 
c1ccc(-n2cccn2)nc1

>  <tags>  (4) 
['Fragmenstein placed']

>  <alias>  (4) 
None

>  <fragmenstein_outcome>  (4) 
['acceptable']

>  <HIPPO Compound ID>  (4) 
9113

>  <name>  (4) 
XXTPHXNBKRVYJI-UHFFFAOYSA-N

>  <fragmenstein_mode>  (4) 
['expansion']

>  <ref_pdb>  (4) 
d0160a

>  <HIPPO Pose ID>  (4) 
35482

>  <distance_score>  (4) 
0.977262

>  <original ID>  (4) 
XXTPHXNBKRVYJI-UHFFFAOYSA-N

>  <ref_mols>  (4) 
d0160a,d0191a

>  <SLURM_JOB_NAME>  (4) 
BulkDock.place:Flavi_NS5_RdRp:RdRp_knitwork_primer_grip_n_pocket_impure_split4000_batch005

>  <fragmenstein_runtime>  (4) 
[1.4785594940185547]

>  <fragmenstein_error>  (4) 
['']

>  <energy_score>  (4) 
-26.908495

>  <inchikey>  (4) 
XXTPHXNBKRVYJI-UHFFFAOYSA-N

>  <SLURM_JOB_ID>  (4) 
211037

>  <scratch_subdir>  (4) 
['/opt/xchem-fragalysis-2/maxwin/BulkDock/SCRATCH/211037/C9113-P12']

$$$$
35528
     RDKit          3D

 11 12  0  0  0  0  0  0  0  0999 V2000
  -16.1358  -42.5328  -25.6239 C   0  0  0  0  0  0  0  0  0  0  0  0
  -15.2174  -41.5012  -25.4915 C   0  0  0  0  0  0  0  0  0  0  0  0
  -15.6120  -40.1955  -25.7438 C   0  0  0  0  0  0  0  0  0  0  0  0
  -16.9491  -39.9603  -26.0558 C   0  0  0  0  0  0  0  0  0  0  0  0
  -17.5773  -38.6468  -25.8198 C   0  0  0  0  0  0  0  0  0  0  0  0
  -18.6587  -38.1548  -26.4084 N   0  0  0  0  0  0  0  0  0  0  0  0
  -19.1473  -37.1010  -25.6564 C   0  0  0  0  0  0  0  0  0  0  0  0
  -18.3715  -36.6987  -24.5951 C   0  0  0  0  0  0  0  0  0  0  0  0
  -17.0354  -37.7396  -24.4387 S   0  0  0  0  0  0  0  0  0  0  0  0
  -17.8401  -40.9649  -26.2748 N   0  0  0  0  0  0  0  0  0  0  0  0
  -17.4139  -42.2200  -26.0394 C   0  0  0  0  0  0  0  0  0  0  0  0
  1  2  2  0
  2  3  1  0
  3  4  2  0
  4  5  1  0
  5  6  2  0
  6  7  1  0
  7  8  2  0
  8  9  1  0
  4 10  1  0
 10 11  2  0
 11  1  1  0
  9  5  1  0
M  END
>  <csv_name>  (5) 
RdRp_knitwork_primer_grip_n_pocket_impure_split4000_batch005.csv

>  <exports>  (5) 
['/opt/xchem-fragalysis-2/maxwin/BulkDock/OUTPUTS/RdRp_knitwork_primer_grip_n_pocket_impure_split4000_batch005_211037.sdf']

>  <original SMILES>  (5) 
c1ccc(-c2nccs2)nc1

>  <tags>  (5) 
['Fragmenstein placed']

>  <alias>  (5) 
None

>  <fragmenstein_outcome>  (5) 
['acceptable']

>  <HIPPO Compound ID>  (5) 
8457

>  <name>  (5) 
FZSXKNJOKINZSF-UHFFFAOYSA-N

>  <fragmenstein_mode>  (5) 
['expansion']

>  <ref_pdb>  (5) 
d0160a

>  <HIPPO Pose ID>  (5) 
35528

>  <distance_score>  (5) 
0.982607

>  <original ID>  (5) 
FZSXKNJOKINZSF-UHFFFAOYSA-N

>  <ref_mols>  (5) 
d0160a,d0191a

>  <SLURM_JOB_NAME>  (5) 
BulkDock.place:Flavi_NS5_RdRp:RdRp_knitwork_primer_grip_n_pocket_impure_split4000_batch005

>  <fragmenstein_runtime>  (5) 
[1.242509126663208]

>  <fragmenstein_error>  (5) 
['']

>  <energy_score>  (5) 
-68.506611

>  <inchikey>  (5) 
FZSXKNJOKINZSF-UHFFFAOYSA-N

>  <SLURM_JOB_ID>  (5) 
211037

>  <scratch_subdir>  (5) 
['/opt/xchem-fragalysis-2/maxwin/BulkDock/SCRATCH/211037/C8457-P12']

$$$$
35555
     RDKit          3D

 11 12  0  0  0  0  0  0  0  0999 V2000
  -16.0625  -42.4700  -25.5982 C   0  0  0  0  0  0  0  0  0  0  0  0
  -15.1927  -41.4136  -25.3702 C   0  0  0  0  0  0  0  0  0  0  0  0
  -15.6130  -40.1172  -25.6300 C   0  0  0  0  0  0  0  0  0  0  0  0
  -16.9158  -39.9213  -26.0825 C   0  0  0  0  0  0  0  0  0  0  0  0
  -17.5639  -38.6172  -25.9300 C   0  0  0  0  0  0  0  0  0  0  0  0
  -18.6948  -38.1347  -26.4309 N   0  0  0  0  0  0  0  0  0  0  0  0
  -18.9745  -37.0635  -25.6161 C   0  0  0  0  0  0  0  0  0  0  0  0
  -17.9609  -36.8708  -24.7169 C   0  0  0  0  0  0  0  0  0  0  0  0
  -17.0428  -37.8496  -24.9101 O   0  0  0  0  0  0  0  0  0  0  0  0
  -17.7542  -40.9475  -26.3912 N   0  0  0  0  0  0  0  0  0  0  0  0
  -17.3091  -42.1904  -26.1231 C   0  0  0  0  0  0  0  0  0  0  0  0
  1  2  2  0
  2  3  1  0
  3  4  2  0
  4  5  1  0
  5  6  2  0
  6  7  1  0
  7  8  2  0
  8  9  1  0
  4 10  1  0
 10 11  2  0
 11  1  1  0
  9  5  1  0
M  END
>  <csv_name>  (6) 
RdRp_knitwork_primer_grip_n_pocket_impure_split4000_batch005.csv

>  <exports>  (6) 
['/opt/xchem-fragalysis-2/maxwin/BulkDock/OUTPUTS/RdRp_knitwork_primer_grip_n_pocket_impure_split4000_batch005_211037.sdf']

>  <original SMILES>  (6) 
c1ccc(-c2ncco2)nc1

>  <tags>  (6) 
['Fragmenstein placed']

>  <alias>  (6) 
None

>  <fragmenstein_outcome>  (6) 
['acceptable']

>  <HIPPO Compound ID>  (6) 
9924

>  <name>  (6) 
BNBQQYFXBLBYJK-UHFFFAOYSA-N

>  <fragmenstein_mode>  (6) 
['expansion']

>  <ref_pdb>  (6) 
d0160a

>  <HIPPO Pose ID>  (6) 
35555

>  <distance_score>  (6) 
0.886163

>  <original ID>  (6) 
BNBQQYFXBLBYJK-UHFFFAOYSA-N

>  <ref_mols>  (6) 
d0160a,d0191a

>  <SLURM_JOB_NAME>  (6) 
BulkDock.place:Flavi_NS5_RdRp:RdRp_knitwork_primer_grip_n_pocket_impure_split4000_batch005

>  <fragmenstein_runtime>  (6) 
[1.220827579498291]

>  <fragmenstein_error>  (6) 
['']

>  <energy_score>  (6) 
-9.400552

>  <inchikey>  (6) 
BNBQQYFXBLBYJK-UHFFFAOYSA-N

>  <SLURM_JOB_ID>  (6) 
211037

>  <scratch_subdir>  (6) 
['/opt/xchem-fragalysis-2/maxwin/BulkDock/SCRATCH/211037/C9924-P12']

$$$$
36265
     RDKit          3D

 16 17  0  0  0  0  0  0  0  0999 V2000
  -15.5667  -45.3815  -21.9737 O   0  0  0  0  0  0  0  0  0  0  0  0
  -16.6571  -45.0885  -22.4564 C   0  0  0  0  0  0  0  0  0  0  0  0
  -16.8361  -43.8255  -22.9569 N   0  0  0  0  0  0  0  0  0  0  0  0
  -15.8214  -43.1964  -23.7512 C   0  0  0  0  0  0  0  0  0  0  0  0
  -14.8109  -42.4905  -22.8391 C   0  0  0  0  0  0  0  0  0  0  0  0
  -14.5571  -41.0754  -23.2199 C   0  0  0  0  0  0  0  0  0  0  0  0
  -13.9337  -40.0731  -22.4381 C   0  0  0  0  0  0  0  0  0  0  0  0
  -13.8367  -38.9046  -23.0811 N   0  0  0  0  0  0  0  0  0  0  0  0
  -14.4232  -39.1556  -24.2682 N   0  0  0  0  0  0  0  0  0  0  0  0
  -14.8347  -40.4411  -24.4098 C   0  0  0  0  0  0  0  0  0  0  0  0
  -17.8189  -45.0982  -21.7341 O   0  0  0  0  0  0  0  0  0  0  0  0
  -17.7191  -45.7726  -20.4753 C   0  0  2  0  0  0  0  0  0  0  0  0
  -19.0012  -45.5665  -19.7048 C   0  0  0  0  0  0  0  0  0  0  0  0
  -18.5639  -45.8079  -18.2823 C   0  0  0  0  0  0  0  0  0  0  0  0
  -17.2349  -45.2928  -18.1793 O   0  0  0  0  0  0  0  0  0  0  0  0
  -16.6902  -45.1904  -19.5043 C   0  0  0  0  0  0  0  0  0  0  0  0
  1  2  2  0
  2  3  1  0
  3  4  1  0
  4  5  1  0
  5  6  1  0
  6  7  1  0
  7  8  2  0
  8  9  1  0
  9 10  1  0
  2 11  1  0
 12 11  1  6
 12 13  1  0
 13 14  1  0
 14 15  1  0
 15 16  1  0
 10  6  2  0
 16 12  1  0
M  END
>  <csv_name>  (7) 
RdRp_knitwork_primer_grip_n_pocket_impure_split4000_batch002.csv

>  <exports>  (7) 
['/opt/xchem-fragalysis-2/maxwin/BulkDock/OUTPUTS/RdRp_knitwork_primer_grip_n_pocket_impure_split4000_batch002_211034.sdf']

>  <original SMILES>  (7) 
O=C(NCCc1cn[nH]c1)O[C@@H]1CCOC1

>  <tags>  (7) 
['Fragmenstein placed']

>  <alias>  (7) 
None

>  <fragmenstein_outcome>  (7) 
['acceptable']

>  <HIPPO Compound ID>  (7) 
13609

>  <name>  (7) 
STJHFQOAHKQTSP-SECBINFHSA-N

>  <fragmenstein_mode>  (7) 
['expansion']

>  <ref_pdb>  (7) 
d0160a

>  <HIPPO Pose ID>  (7) 
36265

>  <distance_score>  (7) 
0.904849

>  <original ID>  (7) 
STJHFQOAHKQTSP-SECBINFHSA-N

>  <ref_mols>  (7) 
d0160a,d0254a

>  <SLURM_JOB_NAME>  (7) 
BulkDock.place:Flavi_NS5_RdRp:RdRp_knitwork_primer_grip_n_pocket_impure_split4000_batch002

>  <fragmenstein_runtime>  (7) 
[3.900132894515991]

>  <fragmenstein_error>  (7) 
['']

>  <energy_score>  (7) 
-16.410291

>  <inchikey>  (7) 
STJHFQOAHKQTSP-SECBINFHSA-N

>  <SLURM_JOB_ID>  (7) 
211034

>  <scratch_subdir>  (7) 
['/opt/xchem-fragalysis-2/maxwin/BulkDock/SCRATCH/211034/C13609-P12']

$$$$
36267
     RDKit          3D

 16 17  0  0  0  0  0  0  0  0999 V2000
  -15.3567  -45.3251  -21.7555 O   0  0  0  0  0  0  0  0  0  0  0  0
  -16.3689  -45.0705  -22.4048 C   0  0  0  0  0  0  0  0  0  0  0  0
  -16.5110  -43.8031  -22.9126 N   0  0  0  0  0  0  0  0  0  0  0  0
  -15.3929  -43.1378  -23.5272 C   0  0  0  0  0  0  0  0  0  0  0  0
  -14.7269  -42.2294  -22.4885 C   0  0  0  0  0  0  0  0  0  0  0  0
  -14.5368  -40.8284  -22.9486 C   0  0  0  0  0  0  0  0  0  0  0  0
  -13.5947  -39.8896  -22.4662 C   0  0  0  0  0  0  0  0  0  0  0  0
  -13.6577  -38.7193  -23.1091 N   0  0  0  0  0  0  0  0  0  0  0  0
  -14.6565  -38.9057  -23.9939 N   0  0  0  0  0  0  0  0  0  0  0  0
  -15.2311  -40.1334  -23.9136 C   0  0  0  0  0  0  0  0  0  0  0  0
  -17.6316  -45.1428  -21.8698 O   0  0  0  0  0  0  0  0  0  0  0  0
  -17.6534  -45.8014  -20.5952 C   0  0  2  0  0  0  0  0  0  0  0  0
  -19.0488  -45.7633  -20.0223 C   0  0  0  0  0  0  0  0  0  0  0  0
  -18.7944  -45.9123  -18.5431 C   0  0  0  0  0  0  0  0  0  0  0  0
  -17.5908  -45.1911  -18.2747 O   0  0  0  0  0  0  0  0  0  0  0  0
  -16.8503  -45.0920  -19.5005 C   0  0  0  0  0  0  0  0  0  0  0  0
  1  2  2  0
  2  3  1  0
  3  4  1  0
  4  5  1  0
  5  6  1  0
  6  7  1  0
  7  8  2  0
  8  9  1  0
  9 10  1  0
  2 11  1  0
 12 11  1  6
 12 13  1  0
 13 14  1  0
 14 15  1  0
 15 16  1  0
 10  6  2  0
 16 12  1  0
M  END
>  <csv_name>  (8) 
RdRp_knitwork_primer_grip_n_pocket_impure_split4000_batch002.csv

>  <exports>  (8) 
['/opt/xchem-fragalysis-2/maxwin/BulkDock/OUTPUTS/RdRp_knitwork_primer_grip_n_pocket_impure_split4000_batch002_211034.sdf']

>  <original SMILES>  (8) 
O=C(NCCc1cn[nH]c1)O[C@@H]1CCOC1

>  <tags>  (8) 
['Fragmenstein placed']

>  <alias>  (8) 
None

>  <fragmenstein_outcome>  (8) 
['acceptable']

>  <HIPPO Compound ID>  (8) 
13609

>  <name>  (8) 
STJHFQOAHKQTSP-SECBINFHSA-N

>  <fragmenstein_mode>  (8) 
['expansion']

>  <ref_pdb>  (8) 
d0254a

>  <HIPPO Pose ID>  (8) 
36267

>  <distance_score>  (8) 
0.955169

>  <original ID>  (8) 
STJHFQOAHKQTSP-SECBINFHSA-N

>  <ref_mols>  (8) 
d0160a,d0254a

>  <SLURM_JOB_NAME>  (8) 
BulkDock.place:Flavi_NS5_RdRp:RdRp_knitwork_primer_grip_n_pocket_impure_split4000_batch002

>  <fragmenstein_runtime>  (8) 
[3.4107954502105713]

>  <fragmenstein_error>  (8) 
['']

>  <energy_score>  (8) 
-16.063682

>  <inchikey>  (8) 
STJHFQOAHKQTSP-SECBINFHSA-N

>  <SLURM_JOB_ID>  (8) 
211034

>  <scratch_subdir>  (8) 
['/opt/xchem-fragalysis-2/maxwin/BulkDock/SCRATCH/211034/C13609-P26']

$$$$
36317
     RDKit          3D

 16 17  0  0  0  0  0  0  0  0999 V2000
  -13.5728  -43.7202  -20.8882 O   0  0  0  0  0  0  0  0  0  0  0  0
  -13.8564  -43.4165  -22.0403 C   0  0  0  0  0  0  0  0  0  0  0  0
  -13.3727  -44.1028  -23.0842 O   0  0  0  0  0  0  0  0  0  0  0  0
  -14.7691  -42.2592  -22.3986 C   0  0  2  0  0  0  0  0  0  0  0  0
  -16.1647  -42.6158  -21.8390 C   0  0  0  0  0  0  0  0  0  0  0  0
  -17.0039  -43.5799  -22.5782 N   0  0  0  0  0  0  0  0  0  0  0  0
  -16.7984  -44.9931  -22.2340 C   0  0  0  0  0  0  0  0  0  0  0  0
  -17.3098  -45.3356  -20.8694 C   0  0  0  0  0  0  0  0  0  0  0  0
  -18.6122  -45.1307  -20.3485 C   0  0  0  0  0  0  0  0  0  0  0  0
  -18.5652  -45.6170  -19.0657 C   0  0  0  0  0  0  0  0  0  0  0  0
  -17.2977  -46.0829  -18.8919 N   0  0  0  0  0  0  0  0  0  0  0  0
  -16.5180  -45.9463  -19.9737 N   0  0  0  0  0  0  0  0  0  0  0  0
  -14.8082  -41.7821  -23.8555 C   0  0  0  0  0  0  0  0  0  0  0  0
  -14.6359  -40.2790  -23.7706 C   0  0  0  0  0  0  0  0  0  0  0  0
  -13.7892  -40.0578  -22.6461 O   0  0  0  0  0  0  0  0  0  0  0  0
  -14.1717  -41.0348  -21.6607 C   0  0  0  0  0  0  0  0  0  0  0  0
  1  2  2  0
  2  3  1  0
  2  4  1  0
  4  5  1  1
  5  6  1  0
  6  7  1  0
  7  8  1  0
  8  9  1  0
  9 10  2  0
 10 11  1  0
 11 12  1  0
  4 13  1  0
 13 14  1  0
 14 15  1  0
 15 16  1  0
 16  4  1  0
 12  8  2  0
M  END
>  <csv_name>  (9) 
RdRp_knitwork_primer_grip_n_pocket_impure_split4000_batch002.csv

>  <exports>  (9) 
['/opt/xchem-fragalysis-2/maxwin/BulkDock/OUTPUTS/RdRp_knitwork_primer_grip_n_pocket_impure_split4000_batch002_211034.sdf']

>  <original SMILES>  (9) 
O=C(O)[C@]1(CNCc2cc[nH]n2)CCOC1

>  <tags>  (9) 
['Fragmenstein placed']

>  <alias>  (9) 
None

>  <fragmenstein_outcome>  (9) 
['acceptable']

>  <HIPPO Compound ID>  (9) 
17533

>  <name>  (9) 
TXYCHSISRFBHDY-JTQLQIEISA-N

>  <fragmenstein_mode>  (9) 
['expansion']

>  <ref_pdb>  (9) 
d0160a

>  <HIPPO Pose ID>  (9) 
36317

>  <distance_score>  (9) 
0.993626

>  <original ID>  (9) 
TXYCHSISRFBHDY-JTQLQIEISA-N

>  <ref_mols>  (9) 
d0160a,d0254a

>  <SLURM_JOB_NAME>  (9) 
BulkDock.place:Flavi_NS5_RdRp:RdRp_knitwork_primer_grip_n_pocket_impure_split4000_batch002

>  <fragmenstein_runtime>  (9) 
[3.602748155593872]

>  <fragmenstein_error>  (9) 
['']

>  <energy_score>  (9) 
-26.861031

>  <inchikey>  (9) 
TXYCHSISRFBHDY-JTQLQIEISA-N

>  <SLURM_JOB_ID>  (9) 
211034

>  <scratch_subdir>  (9) 
['/opt/xchem-fragalysis-2/maxwin/BulkDock/SCRATCH/211034/C17533-P12']

$$$$
36321
     RDKit          3D

 16 17  0  0  0  0  0  0  0  0999 V2000
  -13.2426  -42.8010  -20.7529 O   0  0  0  0  0  0  0  0  0  0  0  0
  -13.7668  -42.9105  -21.8530 C   0  0  0  0  0  0  0  0  0  0  0  0
  -13.4103  -43.8907  -22.7024 O   0  0  0  0  0  0  0  0  0  0  0  0
  -14.9063  -42.0426  -22.3672 C   0  0  2  0  0  0  0  0  0  0  0  0
  -16.2020  -42.7583  -21.9466 C   0  0  0  0  0  0  0  0  0  0  0  0
  -16.4426  -44.0069  -22.6901 N   0  0  0  0  0  0  0  0  0  0  0  0
  -17.6339  -44.7422  -22.2498 C   0  0  0  0  0  0  0  0  0  0  0  0
  -17.4792  -45.3275  -20.8739 C   0  0  0  0  0  0  0  0  0  0  0  0
  -18.4959  -45.5048  -19.9037 C   0  0  0  0  0  0  0  0  0  0  0  0
  -17.8535  -46.0171  -18.8029 C   0  0  0  0  0  0  0  0  0  0  0  0
  -16.5414  -46.1288  -19.1530 N   0  0  0  0  0  0  0  0  0  0  0  0
  -16.2904  -45.7537  -20.4154 N   0  0  0  0  0  0  0  0  0  0  0  0
  -14.8732  -41.6928  -23.8605 C   0  0  0  0  0  0  0  0  0  0  0  0
  -14.6076  -40.1980  -23.9216 C   0  0  0  0  0  0  0  0  0  0  0  0
  -14.0716  -39.8332  -22.6498 O   0  0  0  0  0  0  0  0  0  0  0  0
  -14.7616  -40.6672  -21.7028 C   0  0  0  0  0  0  0  0  0  0  0  0
  1  2  2  0
  2  3  1  0
  2  4  1  0
  4  5  1  1
  5  6  1  0
  6  7  1  0
  7  8  1  0
  8  9  1  0
  9 10  2  0
 10 11  1  0
 11 12  1  0
  4 13  1  0
 13 14  1  0
 14 15  1  0
 15 16  1  0
 16  4  1  0
 12  8  2  0
M  END
>  <csv_name>  (10) 
RdRp_knitwork_primer_grip_n_pocket_impure_split4000_batch002.csv

>  <exports>  (10) 
['/opt/xchem-fragalysis-2/maxwin/BulkDock/OUTPUTS/RdRp_knitwork_primer_grip_n_pocket_impure_split4000_batch002_211034.sdf']

>  <original SMILES>  (10) 
O=C(O)[C@]1(CNCc2cc[nH]n2)CCOC1

>  <tags>  (10) 
['Fragmenstein placed']

>  <alias>  (10) 
None

>  <fragmenstein_outcome>  (10) 
['acceptable']

>  <HIPPO Compound ID>  (10) 
17533

>  <name>  (10) 
TXYCHSISRFBHDY-JTQLQIEISA-N

>  <fragmenstein_mode>  (10) 
['expansion']

>  <ref_pdb>  (10) 
d0254a

>  <HIPPO Pose ID>  (10) 
36321

>  <distance_score>  (10) 
0.946771

>  <original ID>  (10) 
TXYCHSISRFBHDY-JTQLQIEISA-N

>  <ref_mols>  (10) 
d0160a,d0254a

>  <SLURM_JOB_NAME>  (10) 
BulkDock.place:Flavi_NS5_RdRp:RdRp_knitwork_primer_grip_n_pocket_impure_split4000_batch002

>  <fragmenstein_runtime>  (10) 
[4.399312734603882]

>  <fragmenstein_error>  (10) 
['']

>  <energy_score>  (10) 
-34.80326

>  <inchikey>  (10) 
TXYCHSISRFBHDY-JTQLQIEISA-N

>  <SLURM_JOB_ID>  (10) 
211034

>  <scratch_subdir>  (10) 
['/opt/xchem-fragalysis-2/maxwin/BulkDock/SCRATCH/211034/C17533-P26']

$$$$
36388
     RDKit          3D

 15 16  0  0  0  0  0  0  0  0999 V2000
  -18.5155  -44.7032  -23.1613 C   0  0  0  0  0  0  0  0  0  0  0  0
  -17.3257  -45.1294  -22.3097 C   0  0  1  0  0  0  0  0  0  0  0  0
  -16.5172  -44.0038  -21.8271 N   0  0  0  0  0  0  0  0  0  0  0  0
  -15.9479  -43.1422  -22.8586 C   0  0  0  0  0  0  0  0  0  0  0  0
  -14.8436  -42.3022  -22.2023 C   0  0  0  0  0  0  0  0  0  0  0  0
  -14.5210  -41.0261  -22.8928 C   0  0  0  0  0  0  0  0  0  0  0  0
  -13.7871  -39.9460  -22.3457 C   0  0  0  0  0  0  0  0  0  0  0  0
  -13.6501  -38.9277  -23.1980 N   0  0  0  0  0  0  0  0  0  0  0  0
  -14.3058  -39.3541  -24.2983 N   0  0  0  0  0  0  0  0  0  0  0  0
  -14.8322  -40.6044  -24.1662 C   0  0  0  0  0  0  0  0  0  0  0  0
  -17.7510  -45.9668  -21.0743 C   0  0  2  0  0  0  0  0  0  0  0  0
  -18.6743  -45.2455  -20.0932 C   0  0  0  0  0  0  0  0  0  0  0  0
  -18.2187  -45.7582  -18.7519 C   0  0  0  0  0  0  0  0  0  0  0  0
  -16.7359  -45.9431  -18.9638 C   0  0  0  0  0  0  0  0  0  0  0  0
  -16.5575  -46.3356  -20.3298 O   0  0  0  0  0  0  0  0  0  0  0  0
  2  1  1  1
  2  3  1  0
  3  4  1  0
  4  5  1  0
  5  6  1  0
  6  7  1  0
  7  8  2  0
  8  9  1  0
  9 10  1  0
  2 11  1  0
 11 12  1  1
 12 13  1  0
 13 14  1  0
 14 15  1  0
 10  6  2  0
 15 11  1  0
M  END
>  <csv_name>  (11) 
RdRp_knitwork_primer_grip_n_pocket_impure_split4000_batch002.csv

>  <exports>  (11) 
['/opt/xchem-fragalysis-2/maxwin/BulkDock/OUTPUTS/RdRp_knitwork_primer_grip_n_pocket_impure_split4000_batch002_211034.sdf']

>  <original SMILES>  (11) 
C[C@@H](NCCc1cn[nH]c1)[C@@H]1CCCO1

>  <tags>  (11) 
['Fragmenstein placed']

>  <alias>  (11) 
None

>  <fragmenstein_outcome>  (11) 
['acceptable']

>  <HIPPO Compound ID>  (11) 
13648

>  <name>  (11) 
ARIPUKFPUAZCKV-KOLCDFICSA-N

>  <fragmenstein_mode>  (11) 
['expansion']

>  <ref_pdb>  (11) 
d0160a

>  <HIPPO Pose ID>  (11) 
36388

>  <distance_score>  (11) 
0.81307

>  <original ID>  (11) 
ARIPUKFPUAZCKV-KOLCDFICSA-N

>  <ref_mols>  (11) 
d0160a,d0254a

>  <SLURM_JOB_NAME>  (11) 
BulkDock.place:Flavi_NS5_RdRp:RdRp_knitwork_primer_grip_n_pocket_impure_split4000_batch002

>  <fragmenstein_runtime>  (11) 
[2.6403558254241943]

>  <fragmenstein_error>  (11) 
['']

>  <energy_score>  (11) 
-30.526545

>  <inchikey>  (11) 
ARIPUKFPUAZCKV-KOLCDFICSA-N

>  <SLURM_JOB_ID>  (11) 
211034

>  <scratch_subdir>  (11) 
['/opt/xchem-fragalysis-2/maxwin/BulkDock/SCRATCH/211034/C13648-P12']

$$$$
36390
     RDKit          3D

 15 16  0  0  0  0  0  0  0  0999 V2000
  -18.5223  -44.7602  -23.2070 C   0  0  0  0  0  0  0  0  0  0  0  0
  -17.3289  -45.1507  -22.3424 C   0  0  1  0  0  0  0  0  0  0  0  0
  -16.5724  -43.9981  -21.8391 N   0  0  0  0  0  0  0  0  0  0  0  0
  -15.9912  -43.1312  -22.8605 C   0  0  0  0  0  0  0  0  0  0  0  0
  -14.9230  -42.2637  -22.1808 C   0  0  0  0  0  0  0  0  0  0  0  0
  -14.5482  -41.0256  -22.9131 C   0  0  0  0  0  0  0  0  0  0  0  0
  -13.7855  -39.9503  -22.3961 C   0  0  0  0  0  0  0  0  0  0  0  0
  -13.6033  -38.9702  -23.2842 N   0  0  0  0  0  0  0  0  0  0  0  0
  -14.2563  -39.4172  -24.3770 N   0  0  0  0  0  0  0  0  0  0  0  0
  -14.8290  -40.6415  -24.2053 C   0  0  0  0  0  0  0  0  0  0  0  0
  -17.7433  -46.0114  -21.1200 C   0  0  2  0  0  0  0  0  0  0  0  0
  -18.7136  -45.3360  -20.1527 C   0  0  0  0  0  0  0  0  0  0  0  0
  -18.2972  -45.8931  -18.8167 C   0  0  0  0  0  0  0  0  0  0  0  0
  -16.8011  -46.0215  -18.9759 C   0  0  0  0  0  0  0  0  0  0  0  0
  -16.5522  -46.3353  -20.3518 O   0  0  0  0  0  0  0  0  0  0  0  0
  2  1  1  1
  2  3  1  0
  3  4  1  0
  4  5  1  0
  5  6  1  0
  6  7  1  0
  7  8  2  0
  8  9  1  0
  9 10  1  0
  2 11  1  0
 11 12  1  1
 12 13  1  0
 13 14  1  0
 14 15  1  0
 10  6  2  0
 15 11  1  0
M  END
>  <csv_name>  (12) 
RdRp_knitwork_primer_grip_n_pocket_impure_split4000_batch002.csv

>  <exports>  (12) 
['/opt/xchem-fragalysis-2/maxwin/BulkDock/OUTPUTS/RdRp_knitwork_primer_grip_n_pocket_impure_split4000_batch002_211034.sdf']

>  <original SMILES>  (12) 
C[C@@H](NCCc1cn[nH]c1)[C@@H]1CCCO1

>  <tags>  (12) 
['Fragmenstein placed']

>  <alias>  (12) 
None

>  <fragmenstein_outcome>  (12) 
['acceptable']

>  <HIPPO Compound ID>  (12) 
13648

>  <name>  (12) 
ARIPUKFPUAZCKV-KOLCDFICSA-N

>  <fragmenstein_mode>  (12) 
['expansion']

>  <ref_pdb>  (12) 
d0254a

>  <HIPPO Pose ID>  (12) 
36390

>  <distance_score>  (12) 
0.816504

>  <original ID>  (12) 
ARIPUKFPUAZCKV-KOLCDFICSA-N

>  <ref_mols>  (12) 
d0160a,d0254a

>  <SLURM_JOB_NAME>  (12) 
BulkDock.place:Flavi_NS5_RdRp:RdRp_knitwork_primer_grip_n_pocket_impure_split4000_batch002

>  <fragmenstein_runtime>  (12) 
[2.953016757965088]

>  <fragmenstein_error>  (12) 
['']

>  <energy_score>  (12) 
-31.199039

>  <inchikey>  (12) 
ARIPUKFPUAZCKV-KOLCDFICSA-N

>  <SLURM_JOB_ID>  (12) 
211034

>  <scratch_subdir>  (12) 
['/opt/xchem-fragalysis-2/maxwin/BulkDock/SCRATCH/211034/C13648-P26']

$$$$
36393
     RDKit          3D

 15 16  0  0  0  0  0  0  0  0999 V2000
  -14.5519  -43.4539  -20.4737 C   0  0  0  0  0  0  0  0  0  0  0  0
  -15.5151  -42.9527  -21.5613 C   0  0  2  0  0  0  0  0  0  0  0  0
  -15.8019  -44.0154  -22.5255 N   0  0  0  0  0  0  0  0  0  0  0  0
  -17.0598  -44.7823  -22.4071 C   0  0  2  0  0  0  0  0  0  0  0  0
  -18.2443  -43.9772  -22.9428 C   0  0  0  0  0  0  0  0  0  0  0  0
  -17.4379  -45.5460  -21.1115 C   0  0  2  0  0  0  0  0  0  0  0  0
  -18.0491  -44.7674  -19.9614 C   0  0  0  0  0  0  0  0  0  0  0  0
  -17.8957  -45.7487  -18.8246 C   0  0  0  0  0  0  0  0  0  0  0  0
  -16.5864  -46.4447  -19.1473 C   0  0  0  0  0  0  0  0  0  0  0  0
  -16.3183  -46.2498  -20.5473 O   0  0  0  0  0  0  0  0  0  0  0  0
  -14.9358  -41.7424  -22.2607 C   0  0  0  0  0  0  0  0  0  0  0  0
  -15.1163  -41.2983  -23.5948 C   0  0  0  0  0  0  0  0  0  0  0  0
  -14.5310  -40.1206  -23.8370 N   0  0  0  0  0  0  0  0  0  0  0  0
  -13.9375  -39.8179  -22.6795 N   0  0  0  0  0  0  0  0  0  0  0  0
  -14.1489  -40.7441  -21.7065 C   0  0  0  0  0  0  0  0  0  0  0  0
  2  1  1  1
  2  3  1  0
  3  4  1  0
  4  5  1  1
  4  6  1  0
  6  7  1  1
  7  8  1  0
  8  9  1  0
  9 10  1  0
  2 11  1  0
 11 12  1  0
 12 13  2  0
 13 14  1  0
 14 15  1  0
 10  6  1  0
 15 11  2  0
M  END
>  <csv_name>  (13) 
RdRp_knitwork_primer_grip_n_pocket_impure_split4000_batch002.csv

>  <exports>  (13) 
['/opt/xchem-fragalysis-2/maxwin/BulkDock/OUTPUTS/RdRp_knitwork_primer_grip_n_pocket_impure_split4000_batch002_211034.sdf']

>  <original SMILES>  (13) 
C[C@H](N[C@H](C)[C@@H]1CCCO1)c1cn[nH]c1

>  <tags>  (13) 
['Fragmenstein placed']

>  <alias>  (13) 
None

>  <fragmenstein_outcome>  (13) 
['acceptable']

>  <HIPPO Compound ID>  (13) 
13688

>  <name>  (13) 
YOGZHRSNFOZWTM-NGZCFLSTSA-N

>  <fragmenstein_mode>  (13) 
['expansion']

>  <ref_pdb>  (13) 
d0160a

>  <HIPPO Pose ID>  (13) 
36393

>  <distance_score>  (13) 
0.834605

>  <original ID>  (13) 
YOGZHRSNFOZWTM-NGZCFLSTSA-N

>  <ref_mols>  (13) 
d0160a,d0254a

>  <SLURM_JOB_NAME>  (13) 
BulkDock.place:Flavi_NS5_RdRp:RdRp_knitwork_primer_grip_n_pocket_impure_split4000_batch002

>  <fragmenstein_runtime>  (13) 
[3.135244131088257]

>  <fragmenstein_error>  (13) 
['']

>  <energy_score>  (13) 
-40.567899

>  <inchikey>  (13) 
YOGZHRSNFOZWTM-NGZCFLSTSA-N

>  <SLURM_JOB_ID>  (13) 
211034

>  <scratch_subdir>  (13) 
['/opt/xchem-fragalysis-2/maxwin/BulkDock/SCRATCH/211034/C13688-P12']

$$$$
36395
     RDKit          3D

 15 16  0  0  0  0  0  0  0  0999 V2000
  -15.2416  -43.0045  -20.1293 C   0  0  0  0  0  0  0  0  0  0  0  0
  -15.7909  -42.7162  -21.5355 C   0  0  2  0  0  0  0  0  0  0  0  0
  -15.7676  -43.9000  -22.3873 N   0  0  0  0  0  0  0  0  0  0  0  0
  -16.9439  -44.7907  -22.4474 C   0  0  2  0  0  0  0  0  0  0  0  0
  -18.1434  -44.1338  -23.1324 C   0  0  0  0  0  0  0  0  0  0  0  0
  -17.3759  -45.6088  -21.2029 C   0  0  2  0  0  0  0  0  0  0  0  0
  -18.3062  -44.9431  -20.2041 C   0  0  0  0  0  0  0  0  0  0  0  0
  -18.1185  -45.8113  -18.9834 C   0  0  0  0  0  0  0  0  0  0  0  0
  -16.6800  -46.2833  -19.0918 C   0  0  0  0  0  0  0  0  0  0  0  0
  -16.2438  -46.0666  -20.4430 O   0  0  0  0  0  0  0  0  0  0  0  0
  -14.9968  -41.6086  -22.1964 C   0  0  0  0  0  0  0  0  0  0  0  0
  -15.2902  -40.9278  -23.4066 C   0  0  0  0  0  0  0  0  0  0  0  0
  -14.4694  -39.8971  -23.6391 N   0  0  0  0  0  0  0  0  0  0  0  0
  -13.6154  -39.9384  -22.6117 N   0  0  0  0  0  0  0  0  0  0  0  0
  -13.8729  -40.9441  -21.7321 C   0  0  0  0  0  0  0  0  0  0  0  0
  2  1  1  1
  2  3  1  0
  3  4  1  0
  4  5  1  1
  4  6  1  0
  6  7  1  1
  7  8  1  0
  8  9  1  0
  9 10  1  0
  2 11  1  0
 11 12  1  0
 12 13  2  0
 13 14  1  0
 14 15  1  0
 10  6  1  0
 15 11  2  0
M  END
>  <csv_name>  (14) 
RdRp_knitwork_primer_grip_n_pocket_impure_split4000_batch002.csv

>  <exports>  (14) 
['/opt/xchem-fragalysis-2/maxwin/BulkDock/OUTPUTS/RdRp_knitwork_primer_grip_n_pocket_impure_split4000_batch002_211034.sdf']

>  <original SMILES>  (14) 
C[C@H](N[C@H](C)[C@@H]1CCCO1)c1cn[nH]c1

>  <tags>  (14) 
['Fragmenstein placed']

>  <alias>  (14) 
None

>  <fragmenstein_outcome>  (14) 
['acceptable']

>  <HIPPO Compound ID>  (14) 
13688

>  <name>  (14) 
YOGZHRSNFOZWTM-NGZCFLSTSA-N

>  <fragmenstein_mode>  (14) 
['expansion']

>  <ref_pdb>  (14) 
d0254a

>  <HIPPO Pose ID>  (14) 
36395

>  <distance_score>  (14) 
0.799

>  <original ID>  (14) 
YOGZHRSNFOZWTM-NGZCFLSTSA-N

>  <ref_mols>  (14) 
d0160a,d0254a

>  <SLURM_JOB_NAME>  (14) 
BulkDock.place:Flavi_NS5_RdRp:RdRp_knitwork_primer_grip_n_pocket_impure_split4000_batch002

>  <fragmenstein_runtime>  (14) 
[3.1487348079681396]

>  <fragmenstein_error>  (14) 
['']

>  <energy_score>  (14) 
-40.96788

>  <inchikey>  (14) 
YOGZHRSNFOZWTM-NGZCFLSTSA-N

>  <SLURM_JOB_ID>  (14) 
211034

>  <scratch_subdir>  (14) 
['/opt/xchem-fragalysis-2/maxwin/BulkDock/SCRATCH/211034/C13688-P26']

$$$$
36424
     RDKit          3D

 15 16  0  0  0  0  0  0  0  0999 V2000
  -18.9719  -44.5489  -22.5090 O   0  0  0  0  0  0  0  0  0  0  0  0
  -17.7828  -44.6773  -22.2100 C   0  0  0  0  0  0  0  0  0  0  0  0
  -16.7090  -44.2705  -23.2008 C   0  0  0  0  0  0  0  0  0  0  0  0
  -16.3892  -42.7811  -23.1755 C   0  0  0  0  0  0  0  0  0  0  0  0
  -15.1503  -42.4562  -22.3387 C   0  0  0  0  0  0  0  0  0  0  0  0
  -14.8594  -40.9551  -22.2914 C   0  0  1  0  0  0  0  0  0  0  0  0
  -13.6244  -40.6111  -21.4855 C   0  0  0  0  0  0  0  0  0  0  0  0
  -13.2713  -39.2400  -22.0123 C   0  0  0  0  0  0  0  0  0  0  0  0
  -13.6633  -39.2088  -23.3869 O   0  0  0  0  0  0  0  0  0  0  0  0
  -14.5666  -40.3013  -23.6348 C   0  0  0  0  0  0  0  0  0  0  0  0
  -17.4030  -45.1899  -20.9032 C   0  0  0  0  0  0  0  0  0  0  0  0
  -18.2573  -45.5961  -19.8511 C   0  0  0  0  0  0  0  0  0  0  0  0
  -17.5863  -45.9585  -18.7519 N   0  0  0  0  0  0  0  0  0  0  0  0
  -16.3011  -45.8342  -19.1127 N   0  0  0  0  0  0  0  0  0  0  0  0
  -16.1379  -45.3818  -20.3878 C   0  0  0  0  0  0  0  0  0  0  0  0
  1  2  2  0
  2  3  1  0
  3  4  1  0
  4  5  1  0
  6  5  1  6
  6  7  1  0
  7  8  1  0
  8  9  1  0
  9 10  1  0
  2 11  1  0
 11 12  1  0
 12 13  2  0
 13 14  1  0
 14 15  1  0
 10  6  1  0
 15 11  2  0
M  END
>  <csv_name>  (15) 
RdRp_knitwork_primer_grip_n_pocket_impure_split4000_batch002.csv

>  <exports>  (15) 
['/opt/xchem-fragalysis-2/maxwin/BulkDock/OUTPUTS/RdRp_knitwork_primer_grip_n_pocket_impure_split4000_batch002_211034.sdf']

>  <original SMILES>  (15) 
O=C(CCC[C@H]1CCOC1)c1cn[nH]c1

>  <tags>  (15) 
['Fragmenstein placed']

>  <alias>  (15) 
None

>  <fragmenstein_outcome>  (15) 
['acceptable']

>  <HIPPO Compound ID>  (15) 
13689

>  <name>  (15) 
IVUKYONBXBNKOW-VIFPVBQESA-N

>  <fragmenstein_mode>  (15) 
['expansion']

>  <ref_pdb>  (15) 
d0254a

>  <HIPPO Pose ID>  (15) 
36424

>  <distance_score>  (15) 
0.98217

>  <original ID>  (15) 
IVUKYONBXBNKOW-VIFPVBQESA-N

>  <ref_mols>  (15) 
d0160a,d0254a

>  <SLURM_JOB_NAME>  (15) 
BulkDock.place:Flavi_NS5_RdRp:RdRp_knitwork_primer_grip_n_pocket_impure_split4000_batch002

>  <fragmenstein_runtime>  (15) 
[2.33158802986145]

>  <fragmenstein_error>  (15) 
['']

>  <energy_score>  (15) 
-23.196867

>  <inchikey>  (15) 
IVUKYONBXBNKOW-VIFPVBQESA-N

>  <SLURM_JOB_ID>  (15) 
211034

>  <scratch_subdir>  (15) 
['/opt/xchem-fragalysis-2/maxwin/BulkDock/SCRATCH/211034/C13689-P26']

$$$$
36916
     RDKit          3D

 15 16  0  0  0  0  0  0  0  0999 V2000
  -16.6939  -42.0320  -25.3292 C   0  0  0  0  0  0  0  0  0  0  0  0
  -15.8983  -40.8457  -24.8254 C   0  0  0  0  0  0  0  0  0  0  0  0
  -14.7712  -41.1943  -23.8520 C   0  0  1  0  0  0  0  0  0  0  0  0
  -14.0470  -39.9532  -23.6240 O   0  0  0  0  0  0  0  0  0  0  0  0
  -14.0528  -39.6575  -22.2327 C   0  0  0  0  0  0  0  0  0  0  0  0
  -14.2141  -40.9847  -21.5469 C   0  0  0  0  0  0  0  0  0  0  0  0
  -15.1812  -41.7268  -22.4669 C   0  0  2  0  0  0  0  0  0  0  0  0
  -15.0290  -43.2434  -22.2412 C   0  0  0  0  0  0  0  0  0  0  0  0
  -15.9906  -44.1201  -22.9114 N   0  0  0  0  0  0  0  0  0  0  0  0
  -17.3199  -44.2056  -22.3099 C   0  0  0  0  0  0  0  0  0  0  0  0
  -17.3374  -44.9097  -20.9949 C   0  0  0  0  0  0  0  0  0  0  0  0
  -18.2530  -44.6713  -19.9399 C   0  0  0  0  0  0  0  0  0  0  0  0
  -18.0183  -45.4226  -18.8629 N   0  0  0  0  0  0  0  0  0  0  0  0
  -16.9765  -46.1793  -19.2349 N   0  0  0  0  0  0  0  0  0  0  0  0
  -16.5384  -45.9210  -20.5000 C   0  0  0  0  0  0  0  0  0  0  0  0
  1  2  1  0
  3  2  1  6
  3  4  1  0
  4  5  1  0
  5  6  1  0
  6  7  1  0
  7  8  1  6
  8  9  1  0
  9 10  1  0
 10 11  1  0
 11 12  1  0
 12 13  2  0
 13 14  1  0
 14 15  1  0
  7  3  1  0
 15 11  2  0
M  END
>  <csv_name>  (16) 
RdRp_knitwork_primer_grip_n_pocket_impure_split4000_batch002.csv

>  <exports>  (16) 
['/opt/xchem-fragalysis-2/maxwin/BulkDock/OUTPUTS/RdRp_knitwork_primer_grip_n_pocket_impure_split4000_batch002_211034.sdf']

>  <original SMILES>  (16) 
CC[C@H]1OCC[C@@H]1CNCc1cn[nH]c1

>  <tags>  (16) 
['Fragmenstein placed']

>  <alias>  (16) 
None

>  <fragmenstein_outcome>  (16) 
['acceptable']

>  <HIPPO Compound ID>  (16) 
15098

>  <name>  (16) 
YVVYLMDYBLZVGB-GHMZBOCLSA-N

>  <fragmenstein_mode>  (16) 
['expansion']

>  <ref_pdb>  (16) 
d0160a

>  <HIPPO Pose ID>  (16) 
36916

>  <distance_score>  (16) 
0.980816

>  <original ID>  (16) 
YVVYLMDYBLZVGB-GHMZBOCLSA-N

>  <ref_mols>  (16) 
d0160a,d0254a

>  <SLURM_JOB_NAME>  (16) 
BulkDock.place:Flavi_NS5_RdRp:RdRp_knitwork_primer_grip_n_pocket_impure_split4000_batch002

>  <fragmenstein_runtime>  (16) 
[5.998080730438232]

>  <fragmenstein_error>  (16) 
['']

>  <energy_score>  (16) 
-23.176503

>  <inchikey>  (16) 
YVVYLMDYBLZVGB-GHMZBOCLSA-N

>  <SLURM_JOB_ID>  (16) 
211034

>  <scratch_subdir>  (16) 
['/opt/xchem-fragalysis-2/maxwin/BulkDock/SCRATCH/211034/C15098-P12']

$$$$
36919
     RDKit          3D

 10 11  0  0  0  0  0  0  0  0999 V2000
  -13.5000  -43.6172  -19.7463 C   0  0  0  0  0  0  0  0  0  0  0  0
  -14.2342  -43.6822  -20.8990 C   0  0  0  0  0  0  0  0  0  0  0  0
  -15.2692  -44.6013  -20.6054 C   0  0  0  0  0  0  0  0  0  0  0  0
  -16.3511  -45.0932  -21.5085 C   0  0  1  0  0  0  0  0  0  0  0  0
  -17.7563  -44.7595  -21.0201 C   0  0  0  0  0  0  0  0  0  0  0  0
  -18.5235  -44.6595  -22.3135 C   0  0  0  0  0  0  0  0  0  0  0  0
  -17.5144  -43.9866  -23.2099 C   0  0  0  0  0  0  0  0  0  0  0  0
  -16.2474  -44.5443  -22.8479 O   0  0  0  0  0  0  0  0  0  0  0  0
  -15.1589  -45.0671  -19.3501 N   0  0  0  0  0  0  0  0  0  0  0  0
  -14.0487  -44.4336  -18.8145 O   0  0  0  0  0  0  0  0  0  0  0  0
  1  2  2  0
  2  3  1  0
  4  3  1  1
  4  5  1  0
  5  6  1  0
  6  7  1  0
  7  8  1  0
  3  9  2  0
  9 10  1  0
 10  1  1  0
  8  4  1  0
M  END
>  <csv_name>  (17) 
RdRp_knitwork_primer_grip_n_pocket_impure_split4000_batch006.csv

>  <exports>  (17) 
['/opt/xchem-fragalysis-2/maxwin/BulkDock/OUTPUTS/RdRp_knitwork_primer_grip_n_pocket_impure_split4000_batch006_211038.sdf']

>  <original SMILES>  (17) 
c1cc([C@H]2CCCO2)no1

>  <tags>  (17) 
['Fragmenstein placed']

>  <alias>  (17) 
None

>  <fragmenstein_outcome>  (17) 
['acceptable']

>  <HIPPO Compound ID>  (17) 
8780

>  <name>  (17) 
UGQAHDZFCJUQJO-SSDOTTSWSA-N

>  <fragmenstein_mode>  (17) 
['expansion']

>  <ref_pdb>  (17) 
d0254a

>  <HIPPO Pose ID>  (17) 
36919

>  <distance_score>  (17) 
0.998784

>  <original ID>  (17) 
UGQAHDZFCJUQJO-SSDOTTSWSA-N

>  <ref_mols>  (17) 
d0254a,d0472a

>  <SLURM_JOB_NAME>  (17) 
BulkDock.place:Flavi_NS5_RdRp:RdRp_knitwork_primer_grip_n_pocket_impure_split4000_batch006

>  <fragmenstein_runtime>  (17) 
[2.925588846206665]

>  <fragmenstein_error>  (17) 
['']

>  <energy_score>  (17) 
-25.757528

>  <inchikey>  (17) 
UGQAHDZFCJUQJO-SSDOTTSWSA-N

>  <SLURM_JOB_ID>  (17) 
211038

>  <scratch_subdir>  (17) 
['/opt/xchem-fragalysis-2/maxwin/BulkDock/SCRATCH/211038/C8780-P26']

$$$$
36920
     RDKit          3D

 15 16  0  0  0  0  0  0  0  0999 V2000
  -16.5079  -42.2233  -25.4380 C   0  0  0  0  0  0  0  0  0  0  0  0
  -15.8530  -40.9626  -24.9114 C   0  0  0  0  0  0  0  0  0  0  0  0
  -14.7559  -41.2135  -23.8785 C   0  0  1  0  0  0  0  0  0  0  0  0
  -14.0775  -39.9431  -23.6832 O   0  0  0  0  0  0  0  0  0  0  0  0
  -14.0600  -39.6298  -22.2948 C   0  0  0  0  0  0  0  0  0  0  0  0
  -14.2236  -40.9429  -21.5808 C   0  0  0  0  0  0  0  0  0  0  0  0
  -15.1889  -41.7036  -22.4867 C   0  0  2  0  0  0  0  0  0  0  0  0
  -15.0548  -43.2143  -22.2169 C   0  0  0  0  0  0  0  0  0  0  0  0
  -16.0271  -44.0926  -22.8702 N   0  0  0  0  0  0  0  0  0  0  0  0
  -17.3486  -44.1550  -22.2526 C   0  0  0  0  0  0  0  0  0  0  0  0
  -17.3571  -44.8845  -20.9512 C   0  0  0  0  0  0  0  0  0  0  0  0
  -18.2240  -44.6306  -19.8596 C   0  0  0  0  0  0  0  0  0  0  0  0
  -17.9959  -45.4266  -18.8140 N   0  0  0  0  0  0  0  0  0  0  0  0
  -17.0053  -46.2225  -19.2399 N   0  0  0  0  0  0  0  0  0  0  0  0
  -16.5866  -45.9410  -20.5068 C   0  0  0  0  0  0  0  0  0  0  0  0
  1  2  1  0
  3  2  1  6
  3  4  1  0
  4  5  1  0
  5  6  1  0
  6  7  1  0
  7  8  1  6
  8  9  1  0
  9 10  1  0
 10 11  1  0
 11 12  1  0
 12 13  2  0
 13 14  1  0
 14 15  1  0
  7  3  1  0
 15 11  2  0
M  END
>  <csv_name>  (18) 
RdRp_knitwork_primer_grip_n_pocket_impure_split4000_batch002.csv

>  <exports>  (18) 
['/opt/xchem-fragalysis-2/maxwin/BulkDock/OUTPUTS/RdRp_knitwork_primer_grip_n_pocket_impure_split4000_batch002_211034.sdf']

>  <original SMILES>  (18) 
CC[C@H]1OCC[C@@H]1CNCc1cn[nH]c1

>  <tags>  (18) 
['Fragmenstein placed']

>  <alias>  (18) 
None

>  <fragmenstein_outcome>  (18) 
['acceptable']

>  <HIPPO Compound ID>  (18) 
15098

>  <name>  (18) 
YVVYLMDYBLZVGB-GHMZBOCLSA-N

>  <fragmenstein_mode>  (18) 
['expansion']

>  <ref_pdb>  (18) 
d0254a

>  <HIPPO Pose ID>  (18) 
36920

>  <distance_score>  (18) 
0.988307

>  <original ID>  (18) 
YVVYLMDYBLZVGB-GHMZBOCLSA-N

>  <ref_mols>  (18) 
d0160a,d0254a

>  <SLURM_JOB_NAME>  (18) 
BulkDock.place:Flavi_NS5_RdRp:RdRp_knitwork_primer_grip_n_pocket_impure_split4000_batch002

>  <fragmenstein_runtime>  (18) 
[6.330092430114746]

>  <fragmenstein_error>  (18) 
['']

>  <energy_score>  (18) 
-23.012811

>  <inchikey>  (18) 
YVVYLMDYBLZVGB-GHMZBOCLSA-N

>  <SLURM_JOB_ID>  (18) 
211034

>  <scratch_subdir>  (18) 
['/opt/xchem-fragalysis-2/maxwin/BulkDock/SCRATCH/211034/C15098-P26']

$$$$
36923
     RDKit          3D

 15 16  0  0  0  0  0  0  0  0999 V2000
  -15.7365  -40.0263  -25.7963 C   0  0  0  0  0  0  0  0  0  0  0  0
  -15.4021  -41.1808  -24.8607 C   0  0  0  0  0  0  0  0  0  0  0  0
  -15.2558  -40.7625  -23.3911 C   0  0  2  0  0  0  0  0  0  0  0  0
  -14.3335  -39.6500  -23.3085 O   0  0  0  0  0  0  0  0  0  0  0  0
  -13.4799  -39.8195  -22.1788 C   0  0  0  0  0  0  0  0  0  0  0  0
  -13.9496  -41.0425  -21.4340 C   0  0  0  0  0  0  0  0  0  0  0  0
  -14.6763  -41.8593  -22.4914 C   0  0  1  0  0  0  0  0  0  0  0  0
  -15.6261  -42.8686  -21.8265 C   0  0  0  0  0  0  0  0  0  0  0  0
  -16.4821  -43.6281  -22.7434 N   0  0  0  0  0  0  0  0  0  0  0  0
  -16.6747  -45.0266  -22.3174 C   0  0  0  0  0  0  0  0  0  0  0  0
  -17.2938  -45.2007  -20.9641 C   0  0  0  0  0  0  0  0  0  0  0  0
  -18.6276  -44.9327  -20.5714 C   0  0  0  0  0  0  0  0  0  0  0  0
  -18.7009  -45.3264  -19.2579 C   0  0  0  0  0  0  0  0  0  0  0  0
  -17.4627  -45.7939  -18.9396 N   0  0  0  0  0  0  0  0  0  0  0  0
  -16.5866  -45.7359  -19.9533 N   0  0  0  0  0  0  0  0  0  0  0  0
  1  2  1  0
  3  2  1  6
  3  4  1  0
  4  5  1  0
  5  6  1  0
  6  7  1  0
  7  8  1  1
  8  9  1  0
  9 10  1  0
 10 11  1  0
 11 12  1  0
 12 13  2  0
 13 14  1  0
 14 15  1  0
  7  3  1  0
 15 11  2  0
M  END
>  <csv_name>  (19) 
RdRp_knitwork_primer_grip_n_pocket_impure_split4000_batch002.csv

>  <exports>  (19) 
['/opt/xchem-fragalysis-2/maxwin/BulkDock/OUTPUTS/RdRp_knitwork_primer_grip_n_pocket_impure_split4000_batch002_211034.sdf']

>  <original SMILES>  (19) 
CC[C@@H]1OCC[C@H]1CNCc1cc[nH]n1

>  <tags>  (19) 
['Fragmenstein placed']

>  <alias>  (19) 
None

>  <fragmenstein_outcome>  (19) 
['acceptable']

>  <HIPPO Compound ID>  (19) 
18275

>  <name>  (19) 
ZTGAMCFPYFVHLJ-ONGXEEELSA-N

>  <fragmenstein_mode>  (19) 
['expansion']

>  <ref_pdb>  (19) 
d0160a

>  <HIPPO Pose ID>  (19) 
36923

>  <distance_score>  (19) 
0.998031

>  <original ID>  (19) 
ZTGAMCFPYFVHLJ-ONGXEEELSA-N

>  <ref_mols>  (19) 
d0160a,d0254a

>  <SLURM_JOB_NAME>  (19) 
BulkDock.place:Flavi_NS5_RdRp:RdRp_knitwork_primer_grip_n_pocket_impure_split4000_batch002

>  <fragmenstein_runtime>  (19) 
[3.7079434394836426]

>  <fragmenstein_error>  (19) 
['']

>  <energy_score>  (19) 
-36.108166

>  <inchikey>  (19) 
ZTGAMCFPYFVHLJ-ONGXEEELSA-N

>  <SLURM_JOB_ID>  (19) 
211034

>  <scratch_subdir>  (19) 
['/opt/xchem-fragalysis-2/maxwin/BulkDock/SCRATCH/211034/C18275-P12']

$$$$
36927
     RDKit          3D

 15 16  0  0  0  0  0  0  0  0999 V2000
  -15.5492  -40.2819  -25.9996 C   0  0  0  0  0  0  0  0  0  0  0  0
  -15.2659  -41.3502  -24.9507 C   0  0  0  0  0  0  0  0  0  0  0  0
  -15.1659  -40.7823  -23.5374 C   0  0  2  0  0  0  0  0  0  0  0  0
  -14.1712  -39.7318  -23.4838 O   0  0  0  0  0  0  0  0  0  0  0  0
  -13.5084  -39.7899  -22.2192 C   0  0  0  0  0  0  0  0  0  0  0  0
  -14.1935  -40.8613  -21.4034 C   0  0  0  0  0  0  0  0  0  0  0  0
  -14.7555  -41.7961  -22.4622 C   0  0  1  0  0  0  0  0  0  0  0  0
  -15.8774  -42.6836  -21.9101 C   0  0  0  0  0  0  0  0  0  0  0  0
  -16.1231  -43.8677  -22.7364 N   0  0  0  0  0  0  0  0  0  0  0  0
  -17.3513  -44.5931  -22.3799 C   0  0  0  0  0  0  0  0  0  0  0  0
  -17.3273  -45.1989  -21.0025 C   0  0  0  0  0  0  0  0  0  0  0  0
  -18.4209  -45.3081  -20.1057 C   0  0  0  0  0  0  0  0  0  0  0  0
  -17.9054  -45.9020  -18.9801 C   0  0  0  0  0  0  0  0  0  0  0  0
  -16.5872  -46.1195  -19.2448 N   0  0  0  0  0  0  0  0  0  0  0  0
  -16.2145  -45.7359  -20.4748 N   0  0  0  0  0  0  0  0  0  0  0  0
  1  2  1  0
  3  2  1  6
  3  4  1  0
  4  5  1  0
  5  6  1  0
  6  7  1  0
  7  8  1  1
  8  9  1  0
  9 10  1  0
 10 11  1  0
 11 12  1  0
 12 13  2  0
 13 14  1  0
 14 15  1  0
  7  3  1  0
 15 11  2  0
M  END
>  <csv_name>  (20) 
RdRp_knitwork_primer_grip_n_pocket_impure_split4000_batch002.csv

>  <exports>  (20) 
['/opt/xchem-fragalysis-2/maxwin/BulkDock/OUTPUTS/RdRp_knitwork_primer_grip_n_pocket_impure_split4000_batch002_211034.sdf']

>  <original SMILES>  (20) 
CC[C@@H]1OCC[C@H]1CNCc1cc[nH]n1

>  <tags>  (20) 
['Fragmenstein placed']

>  <alias>  (20) 
None

>  <fragmenstein_outcome>  (20) 
['acceptable']

>  <HIPPO Compound ID>  (20) 
18275

>  <name>  (20) 
ZTGAMCFPYFVHLJ-ONGXEEELSA-N

>  <fragmenstein_mode>  (20) 
['expansion']

>  <ref_pdb>  (20) 
d0254a

>  <HIPPO Pose ID>  (20) 
36927

>  <distance_score>  (20) 
0.9069

>  <original ID>  (20) 
ZTGAMCFPYFVHLJ-ONGXEEELSA-N

>  <ref_mols>  (20) 
d0160a,d0254a

>  <SLURM_JOB_NAME>  (20) 
BulkDock.place:Flavi_NS5_RdRp:RdRp_knitwork_primer_grip_n_pocket_impure_split4000_batch002

>  <fragmenstein_runtime>  (20) 
[3.629103660583496]

>  <fragmenstein_error>  (20) 
['']

>  <energy_score>  (20) 
-41.079264

>  <inchikey>  (20) 
ZTGAMCFPYFVHLJ-ONGXEEELSA-N

>  <SLURM_JOB_ID>  (20) 
211034

>  <scratch_subdir>  (20) 
['/opt/xchem-fragalysis-2/maxwin/BulkDock/SCRATCH/211034/C18275-P26']

$$$$
37507
     RDKit          3D

 15 16  0  0  0  0  0  0  0  0999 V2000
  -17.7548  -38.9160  -24.7938 C   0  0  0  0  0  0  0  0  0  0  0  0
  -16.5448  -38.9293  -25.7180 C   0  0  0  0  0  0  0  0  0  0  0  0
  -16.0246  -40.3276  -26.0552 C   0  0  1  0  0  0  0  0  0  0  0  0
  -15.5042  -41.1334  -24.8606 C   0  0  0  0  0  0  0  0  0  0  0  0
  -16.5026  -42.2716  -24.7037 C   0  0  2  0  0  0  0  0  0  0  0  0
  -15.9239  -43.5119  -24.1810 N   0  0  0  0  0  0  0  0  0  0  0  0
  -16.1222  -43.7330  -22.7453 C   0  0  0  0  0  0  0  0  0  0  0  0
  -17.3527  -44.6188  -22.4770 C   0  0  0  0  0  0  0  0  0  0  0  0
  -17.4942  -45.0796  -21.0609 C   0  0  0  0  0  0  0  0  0  0  0  0
  -18.6180  -45.3264  -20.2993 C   0  0  0  0  0  0  0  0  0  0  0  0
  -18.1295  -45.8022  -19.0698 C   0  0  0  0  0  0  0  0  0  0  0  0
  -16.7970  -45.8476  -19.0413 N   0  0  0  0  0  0  0  0  0  0  0  0
  -16.4347  -45.4181  -20.2594 N   0  0  0  0  0  0  0  0  0  0  0  0
  -16.9922  -42.4252  -26.1401 C   0  0  0  0  0  0  0  0  0  0  0  0
  -17.0758  -41.0986  -26.6740 O   0  0  0  0  0  0  0  0  0  0  0  0
  1  2  1  0
  3  2  1  1
  3  4  1  0
  4  5  1  0
  5  6  1  6
  6  7  1  0
  7  8  1  0
  8  9  1  0
  9 10  2  0
 10 11  1  0
 11 12  2  0
 12 13  1  0
  5 14  1  0
 14 15  1  0
 15  3  1  0
 13  9  1  0
M  END
>  <csv_name>  (21) 
RdRp_knitwork_primer_grip_n_pocket_impure_split4000_batch002.csv

>  <exports>  (21) 
['/opt/xchem-fragalysis-2/maxwin/BulkDock/OUTPUTS/RdRp_knitwork_primer_grip_n_pocket_impure_split4000_batch002_211034.sdf']

>  <original SMILES>  (21) 
CC[C@H]1C[C@H](NCCc2ccn[nH]2)CO1

>  <tags>  (21) 
['Fragmenstein placed']

>  <alias>  (21) 
None

>  <fragmenstein_outcome>  (21) 
['acceptable']

>  <HIPPO Compound ID>  (21) 
19934

>  <name>  (21) 
VAKNKFGBVYKSDR-QWRGUYRKSA-N

>  <fragmenstein_mode>  (21) 
['expansion']

>  <ref_pdb>  (21) 
d0160a

>  <HIPPO Pose ID>  (21) 
37507

>  <distance_score>  (21) 
0.926999

>  <original ID>  (21) 
VAKNKFGBVYKSDR-QWRGUYRKSA-N

>  <ref_mols>  (21) 
d0160a,d0254a

>  <SLURM_JOB_NAME>  (21) 
BulkDock.place:Flavi_NS5_RdRp:RdRp_knitwork_primer_grip_n_pocket_impure_split4000_batch002

>  <fragmenstein_runtime>  (21) 
[2.1022138595581055]

>  <fragmenstein_error>  (21) 
['']

>  <energy_score>  (21) 
-21.971788

>  <inchikey>  (21) 
VAKNKFGBVYKSDR-QWRGUYRKSA-N

>  <SLURM_JOB_ID>  (21) 
211034

>  <scratch_subdir>  (21) 
['/opt/xchem-fragalysis-2/maxwin/BulkDock/SCRATCH/211034/C19934-P12']

$$$$
38031
     RDKit          3D

 13 14  0  0  0  0  0  0  0  0999 V2000
  -19.3535  -37.3238  -26.8251 O   0  0  0  0  0  1  0  0  0  0  0  0
  -18.9380  -37.7183  -25.2689 S   0  0  0  0  0  3  0  0  0  0  0  0
  -17.2788  -38.4920  -25.2910 C   0  0  0  0  0  0  0  0  0  0  0  0
  -17.4540  -40.0006  -25.4438 C   0  0  0  0  0  0  0  0  0  0  0  0
  -16.1162  -40.7414  -25.4597 C   0  0  0  0  0  0  0  0  0  0  0  0
  -15.2863  -40.8433  -24.1587 C   0  0  0  0  0  0  0  0  0  0  0  0
  -15.9581  -42.1230  -23.8625 N   0  0  0  0  0  0  0  0  0  0  0  0
  -16.2665  -42.2719  -25.3053 C   0  0  0  0  0  0  0  0  0  0  0  0
  -18.4959  -36.1859  -24.4185 C   0  0  1  0  0  0  0  0  0  0  0  0
  -19.6126  -35.1650  -24.5309 C   0  0  0  0  0  0  0  0  0  0  0  0
  -19.5628  -34.4541  -23.2023 C   0  0  0  0  0  0  0  0  0  0  0  0
  -19.1961  -35.4587  -22.2554 O   0  0  0  0  0  0  0  0  0  0  0  0
  -18.3183  -36.3798  -22.9218 C   0  0  0  0  0  0  0  0  0  0  0  0
  2  1  1  6
  2  3  1  0
  3  4  1  0
  4  5  1  0
  5  6  1  0
  6  7  1  0
  7  8  1  0
  2  9  1  0
  9 10  1  1
 10 11  1  0
 11 12  1  0
 12 13  1  0
  8  5  1  0
 13  9  1  0
M  CHG  2   1  -1   2   1
M  END
>  <csv_name>  (22) 
RdRp_knitwork_primer_grip_n_pocket_impure_split4000_batch005.csv

>  <exports>  (22) 
['/opt/xchem-fragalysis-2/maxwin/BulkDock/OUTPUTS/RdRp_knitwork_primer_grip_n_pocket_impure_split4000_batch005_211037.sdf']

>  <original SMILES>  (22) 
[O-][S@@+](CCC1CNC1)[C@H]1CCOC1

>  <tags>  (22) 
['Fragmenstein placed']

>  <alias>  (22) 
None

>  <fragmenstein_outcome>  (22) 
['acceptable']

>  <HIPPO Compound ID>  (22) 
11163

>  <name>  (22) 
CGBYUAUIBZPFRK-ZANVPECISA-N

>  <fragmenstein_mode>  (22) 
['expansion']

>  <ref_pdb>  (22) 
d0866a

>  <HIPPO Pose ID>  (22) 
38031

>  <distance_score>  (22) 
0.786605

>  <original ID>  (22) 
CGBYUAUIBZPFRK-ZANVPECISA-N

>  <ref_mols>  (22) 
d0254a,d0866a

>  <SLURM_JOB_NAME>  (22) 
BulkDock.place:Flavi_NS5_RdRp:RdRp_knitwork_primer_grip_n_pocket_impure_split4000_batch005

>  <fragmenstein_runtime>  (22) 
[9.821639060974121]

>  <fragmenstein_error>  (22) 
['']

>  <energy_score>  (22) 
-31.159883

>  <inchikey>  (22) 
CGBYUAUIBZPFRK-ZANVPECISA-N

>  <SLURM_JOB_ID>  (22) 
211037

>  <scratch_subdir>  (22) 
['/opt/xchem-fragalysis-2/maxwin/BulkDock/SCRATCH/211037/C11163-P68']

$$$$
38848
     RDKit          3D

 12 14  0  0  0  0  0  0  0  0999 V2000
  -13.6921  -40.4295  -21.8185 C   0  0  0  0  0  0  0  0  0  0  0  0
  -14.3870  -41.3643  -22.6133 C   0  0  0  0  0  0  0  0  0  0  0  0
  -14.8154  -40.6378  -23.6965 C   0  0  0  0  0  0  0  0  0  0  0  0
  -15.5853  -41.1191  -24.9728 C   0  0  2  0  0  0  0  0  0  0  0  0
  -15.3735  -40.2890  -26.2288 C   0  0  0  0  0  0  0  0  0  0  0  0
  -16.6687  -39.6436  -26.6958 C   0  0  0  0  0  0  0  0  0  0  0  0
  -17.7053  -40.7322  -26.9261 C   0  0  0  0  0  0  0  0  0  0  0  0
  -18.1141  -41.3942  -25.6152 C   0  0  0  0  0  0  0  0  0  0  0  0
  -16.9618  -41.7211  -24.7190 C   0  0  1  0  0  0  0  0  0  0  0  0
  -15.8473  -42.6052  -25.1779 C   0  0  0  0  0  0  0  0  0  0  0  0
  -14.4170  -39.3522  -23.4710 N   0  0  0  0  0  0  0  0  0  0  0  0
  -13.7003  -39.1996  -22.3438 N   0  0  0  0  0  0  0  0  0  0  0  0
  1  2  1  0
  2  3  2  0
  4  3  1  1
  4  5  1  0
  5  6  1  0
  6  7  1  0
  7  8  1  0
  9  8  1  6
  9 10  1  0
  3 11  1  0
 11 12  1  0
 12  1  2  0
  9  4  1  0
 10  4  1  0
M  END
>  <csv_name>  (23) 
RdRp_knitwork_primer_grip_n_pocket_impure_split4000_batch006.csv

>  <exports>  (23) 
['/opt/xchem-fragalysis-2/maxwin/BulkDock/OUTPUTS/RdRp_knitwork_primer_grip_n_pocket_impure_split4000_batch006_211038.sdf']

>  <original SMILES>  (23) 
c1cc([C@]23CCCC[C@H]2C3)[nH]n1

>  <tags>  (23) 
['Fragmenstein placed']

>  <alias>  (23) 
None

>  <fragmenstein_outcome>  (23) 
['acceptable']

>  <HIPPO Compound ID>  (23) 
630

>  <name>  (23) 
GCGCKFVVTCHGHD-WPRPVWTQSA-N

>  <fragmenstein_mode>  (23) 
['expansion']

>  <ref_pdb>  (23) 
d0160a

>  <HIPPO Pose ID>  (23) 
38848

>  <distance_score>  (23) 
0.914393

>  <original ID>  (23) 
GCGCKFVVTCHGHD-WPRPVWTQSA-N

>  <ref_mols>  (23) 
d0160a,d0851a

>  <SLURM_JOB_NAME>  (23) 
BulkDock.place:Flavi_NS5_RdRp:RdRp_knitwork_primer_grip_n_pocket_impure_split4000_batch006

>  <fragmenstein_runtime>  (23) 
[2.9619696140289307]

>  <fragmenstein_error>  (23) 
['']

>  <energy_score>  (23) 
-17.597022

>  <inchikey>  (23) 
GCGCKFVVTCHGHD-WPRPVWTQSA-N

>  <SLURM_JOB_ID>  (23) 
211038

>  <scratch_subdir>  (23) 
['/opt/xchem-fragalysis-2/maxwin/BulkDock/SCRATCH/211038/C630-P12']

$$$$
38895
     RDKit          3D

 11 12  0  0  0  0  0  0  0  0999 V2000
  -15.7697  -41.0064  -24.0536 C   0  0  0  0  0  0  0  0  0  0  0  0
  -16.2689  -39.8500  -24.5143 C   0  0  0  0  0  0  0  0  0  0  0  0
  -16.8922  -39.6936  -25.8812 C   0  0  2  0  0  0  0  0  0  0  0  0
  -18.3044  -39.3044  -25.7665 N   0  0  0  0  0  0  0  0  0  0  0  0
  -18.7755  -38.0153  -25.7243 C   0  0  0  0  0  0  0  0  0  0  0  0
  -20.1404  -38.1049  -25.5877 C   0  0  0  0  0  0  0  0  0  0  0  0
  -20.4044  -39.4858  -25.5616 C   0  0  0  0  0  0  0  0  0  0  0  0
  -19.2950  -40.2182  -25.6777 N   0  0  0  0  0  0  0  0  0  0  0  0
  -16.6532  -40.9114  -26.7946 C   0  0  0  0  0  0  0  0  0  0  0  0
  -16.7485  -42.2398  -26.0441 C   0  0  0  0  0  0  0  0  0  0  0  0
  -15.8182  -42.2885  -24.8278 C   0  0  0  0  0  0  0  0  0  0  0  0
  1  2  2  0
  2  3  1  0
  3  4  1  1
  4  5  1  0
  5  6  2  0
  6  7  1  0
  7  8  2  0
  3  9  1  0
  9 10  1  0
 10 11  1  0
 11  1  1  0
  8  4  1  0
M  END
>  <csv_name>  (24) 
RdRp_knitwork_primer_grip_n_pocket_impure_split4000_batch006.csv

>  <exports>  (24) 
['/opt/xchem-fragalysis-2/maxwin/BulkDock/OUTPUTS/RdRp_knitwork_primer_grip_n_pocket_impure_split4000_batch006_211038.sdf']

>  <original SMILES>  (24) 
C1=C[C@H](n2cccn2)CCC1

>  <tags>  (24) 
['Fragmenstein placed']

>  <alias>  (24) 
None

>  <fragmenstein_outcome>  (24) 
['acceptable']

>  <HIPPO Compound ID>  (24) 
646

>  <name>  (24) 
LGOSQMUDZURGMS-VIFPVBQESA-N

>  <fragmenstein_mode>  (24) 
['expansion']

>  <ref_pdb>  (24) 
d0160a

>  <HIPPO Pose ID>  (24) 
38895

>  <distance_score>  (24) 
0.924907

>  <original ID>  (24) 
LGOSQMUDZURGMS-VIFPVBQESA-N

>  <ref_mols>  (24) 
d0160a,d0851a

>  <SLURM_JOB_NAME>  (24) 
BulkDock.place:Flavi_NS5_RdRp:RdRp_knitwork_primer_grip_n_pocket_impure_split4000_batch006

>  <fragmenstein_runtime>  (24) 
[1.860830545425415]

>  <fragmenstein_error>  (24) 
['']

>  <energy_score>  (24) 
-27.086886

>  <inchikey>  (24) 
LGOSQMUDZURGMS-VIFPVBQESA-N

>  <SLURM_JOB_ID>  (24) 
211038

>  <scratch_subdir>  (24) 
['/opt/xchem-fragalysis-2/maxwin/BulkDock/SCRATCH/211038/C646-P12']

$$$$
38898
     RDKit          3D

 11 12  0  0  0  0  0  0  0  0999 V2000
  -15.7179  -40.9893  -24.0596 C   0  0  0  0  0  0  0  0  0  0  0  0
  -16.2289  -39.8536  -24.5567 C   0  0  0  0  0  0  0  0  0  0  0  0
  -16.9137  -39.7623  -25.8995 C   0  0  2  0  0  0  0  0  0  0  0  0
  -18.3183  -39.3635  -25.7385 N   0  0  0  0  0  0  0  0  0  0  0  0
  -18.7858  -38.0728  -25.7310 C   0  0  0  0  0  0  0  0  0  0  0  0
  -20.1488  -38.1549  -25.5725 C   0  0  0  0  0  0  0  0  0  0  0  0
  -20.4136  -39.5331  -25.4842 C   0  0  0  0  0  0  0  0  0  0  0  0
  -19.3052  -40.2704  -25.5750 N   0  0  0  0  0  0  0  0  0  0  0  0
  -16.7193  -41.0247  -26.7626 C   0  0  0  0  0  0  0  0  0  0  0  0
  -16.7848  -42.3145  -25.9446 C   0  0  0  0  0  0  0  0  0  0  0  0
  -15.8089  -42.3084  -24.7639 C   0  0  0  0  0  0  0  0  0  0  0  0
  1  2  2  0
  2  3  1  0
  3  4  1  1
  4  5  1  0
  5  6  2  0
  6  7  1  0
  7  8  2  0
  3  9  1  0
  9 10  1  0
 10 11  1  0
 11  1  1  0
  8  4  1  0
M  END
>  <csv_name>  (25) 
RdRp_knitwork_primer_grip_n_pocket_impure_split4000_batch006.csv

>  <exports>  (25) 
['/opt/xchem-fragalysis-2/maxwin/BulkDock/OUTPUTS/RdRp_knitwork_primer_grip_n_pocket_impure_split4000_batch006_211038.sdf']

>  <original SMILES>  (25) 
C1=C[C@H](n2cccn2)CCC1

>  <tags>  (25) 
['Fragmenstein placed']

>  <alias>  (25) 
None

>  <fragmenstein_outcome>  (25) 
['acceptable']

>  <HIPPO Compound ID>  (25) 
646

>  <name>  (25) 
LGOSQMUDZURGMS-VIFPVBQESA-N

>  <fragmenstein_mode>  (25) 
['expansion']

>  <ref_pdb>  (25) 
d0851a

>  <HIPPO Pose ID>  (25) 
38898

>  <distance_score>  (25) 
0.871947

>  <original ID>  (25) 
LGOSQMUDZURGMS-VIFPVBQESA-N

>  <ref_mols>  (25) 
d0160a,d0851a

>  <SLURM_JOB_NAME>  (25) 
BulkDock.place:Flavi_NS5_RdRp:RdRp_knitwork_primer_grip_n_pocket_impure_split4000_batch006

>  <fragmenstein_runtime>  (25) 
[2.134463310241699]

>  <fragmenstein_error>  (25) 
['']

>  <energy_score>  (25) 
-27.057482

>  <inchikey>  (25) 
LGOSQMUDZURGMS-VIFPVBQESA-N

>  <SLURM_JOB_ID>  (25) 
211038

>  <scratch_subdir>  (25) 
['/opt/xchem-fragalysis-2/maxwin/BulkDock/SCRATCH/211038/C646-P66']

$$$$
39174
     RDKit          3D

 16 17  0  0  0  0  0  0  0  0999 V2000
  -14.1924  -43.6391  -22.9490 C   0  0  0  0  0  0  0  0  0  0  0  0
  -15.3003  -42.7475  -22.3718 C   0  0  2  0  0  0  0  0  0  0  0  0
  -16.7361  -43.0433  -23.0043 C   0  0  0  0  0  0  0  0  0  0  0  0
  -17.0378  -43.5587  -24.0924 O   0  0  0  0  0  0  0  0  0  0  0  0
  -16.6638  -44.2762  -22.0702 N   0  0  0  0  0  0  0  0  0  0  0  0
  -17.7141  -45.2666  -22.1009 C   0  0  0  0  0  0  0  0  0  0  0  0
  -17.8335  -45.7502  -20.6971 C   0  0  0  0  0  0  0  0  0  0  0  0
  -18.9315  -45.6368  -19.8173 C   0  0  0  0  0  0  0  0  0  0  0  0
  -18.4449  -46.0810  -18.6162 C   0  0  0  0  0  0  0  0  0  0  0  0
  -17.1469  -46.4436  -18.7564 O   0  0  0  0  0  0  0  0  0  0  0  0
  -16.7568  -46.2530  -20.0689 N   0  0  0  0  0  0  0  0  0  0  0  0
  -15.1064  -41.2444  -22.6623 C   0  0  2  0  0  0  0  0  0  0  0  0
  -14.9879  -40.8502  -24.1144 C   0  0  0  0  0  0  0  0  0  0  0  0
  -14.4291  -39.4585  -23.9947 C   0  0  0  0  0  0  0  0  0  0  0  0
  -13.5628  -39.4471  -22.8489 O   0  0  0  0  0  0  0  0  0  0  0  0
  -13.8912  -40.5833  -22.0291 C   0  0  0  0  0  0  0  0  0  0  0  0
  2  1  1  6
  2  3  1  0
  3  4  2  0
  3  5  1  0
  5  6  1  0
  6  7  1  0
  7  8  1  0
  8  9  2  0
  9 10  1  0
 10 11  1  0
  2 12  1  0
 12 13  1  6
 13 14  1  0
 14 15  1  0
 15 16  1  0
 11  7  2  0
 16 12  1  0
M  END
>  <csv_name>  (26) 
RdRp_knitwork_primer_grip_n_pocket_impure_split4000_batch002.csv

>  <exports>  (26) 
['/opt/xchem-fragalysis-2/maxwin/BulkDock/OUTPUTS/RdRp_knitwork_primer_grip_n_pocket_impure_split4000_batch002_211034.sdf']

>  <original SMILES>  (26) 
C[C@H](C(=O)NCc1ccon1)[C@@H]1CCOC1

>  <tags>  (26) 
['Fragmenstein placed']

>  <alias>  (26) 
None

>  <fragmenstein_outcome>  (26) 
['acceptable']

>  <HIPPO Compound ID>  (26) 
11224

>  <name>  (26) 
HUVLUPMFLCYUKG-DTWKUNHWSA-N

>  <fragmenstein_mode>  (26) 
['expansion']

>  <ref_pdb>  (26) 
d0160a

>  <HIPPO Pose ID>  (26) 
39174

>  <distance_score>  (26) 
0.725013

>  <original ID>  (26) 
HUVLUPMFLCYUKG-DTWKUNHWSA-N

>  <ref_mols>  (26) 
d0160a,d0254a

>  <SLURM_JOB_NAME>  (26) 
BulkDock.place:Flavi_NS5_RdRp:RdRp_knitwork_primer_grip_n_pocket_impure_split4000_batch002

>  <fragmenstein_runtime>  (26) 
[3.091749429702759]

>  <fragmenstein_error>  (26) 
['']

>  <energy_score>  (26) 
-19.77492

>  <inchikey>  (26) 
HUVLUPMFLCYUKG-DTWKUNHWSA-N

>  <SLURM_JOB_ID>  (26) 
211034

>  <scratch_subdir>  (26) 
['/opt/xchem-fragalysis-2/maxwin/BulkDock/SCRATCH/211034/C11224-P12']

$$$$
39368
     RDKit          3D

 22 24  0  0  0  0  0  0  0  0999 V2000
  -18.0250  -44.5887  -22.7497 O   0  0  0  0  0  0  0  0  0  0  0  0
  -17.3502  -44.2718  -21.7590 C   0  0  0  0  0  0  0  0  0  0  0  0
  -16.0824  -43.6885  -21.9239 N   0  0  0  0  0  0  0  0  0  0  0  0
  -16.0810  -42.6146  -22.8461 O   0  0  0  0  0  0  0  0  0  0  0  0
  -14.7522  -42.1922  -23.1526 C   0  0  1  0  0  0  0  0  0  0  0  0
  -14.8462  -41.2648  -24.3480 C   0  0  0  0  0  0  0  0  0  0  0  0
  -14.7100  -39.8863  -23.7452 C   0  0  0  0  0  0  0  0  0  0  0  0
  -13.8360  -40.0361  -22.6223 O   0  0  0  0  0  0  0  0  0  0  0  0
  -14.1403  -41.3206  -22.0518 C   0  0  0  0  0  0  0  0  0  0  0  0
  -17.2387  -45.2552  -20.7243 N   0  0  0  0  0  0  0  0  0  0  0  0
  -18.4996  -45.8772  -20.3487 C   0  0  0  0  0  0  0  0  0  0  0  0
  -18.5781  -46.1408  -18.8360 C   0  0  0  0  0  0  0  0  0  0  0  0
  -17.7590  -45.2148  -18.0505 N   0  0  0  0  0  0  0  0  0  0  0  0
  -18.2257  -44.7149  -16.7939 C   0  0  0  0  0  0  0  0  0  0  0  0
  -19.2887  -45.3028  -16.1021 C   0  0  0  0  0  0  0  0  0  0  0  0
  -19.7220  -44.7660  -14.8886 C   0  0  0  0  0  0  0  0  0  0  0  0
  -19.0819  -43.6460  -14.3915 C   0  0  0  0  0  0  0  0  0  0  0  0
  -18.0630  -43.0347  -15.0243 N   0  0  0  0  0  0  0  0  0  0  0  0
  -17.6606  -43.5823  -16.1990 C   0  0  0  0  0  0  0  0  0  0  0  0
  -16.4134  -45.0707  -18.4449 C   0  0  0  0  0  0  0  0  0  0  0  0
  -15.5089  -44.6960  -17.6971 O   0  0  0  0  0  0  0  0  0  0  0  0
  -16.1044  -45.5884  -19.8611 C   0  0  0  0  0  0  0  0  0  0  0  0
  1  2  2  0
  2  3  1  0
  3  4  1  0
  5  4  1  1
  5  6  1  0
  6  7  1  0
  7  8  1  0
  8  9  1  0
  2 10  1  0
 10 11  1  0
 11 12  1  0
 12 13  1  0
 13 14  1  0
 14 15  2  0
 15 16  1  0
 16 17  2  0
 17 18  1  0
 18 19  2  0
 13 20  1  0
 20 21  2  0
 20 22  1  0
  9  5  1  0
 22 10  1  0
 19 14  1  0
M  END
>  <csv_name>  (27) 
RdRp_knitwork_primer_grip_n_pocket_impure_split4000_batch002.csv

>  <exports>  (27) 
['/opt/xchem-fragalysis-2/maxwin/BulkDock/OUTPUTS/RdRp_knitwork_primer_grip_n_pocket_impure_split4000_batch002_211034.sdf']

>  <original SMILES>  (27) 
O=C(NO[C@H]1CCOC1)N1CCN(c2cccnc2)C(=O)C1

>  <tags>  (27) 
['Fragmenstein placed']

>  <alias>  (27) 
None

>  <fragmenstein_outcome>  (27) 
['acceptable']

>  <HIPPO Compound ID>  (27) 
16150

>  <name>  (27) 
IRPJMEHEHAKAJE-LBPRGKRZSA-N

>  <fragmenstein_mode>  (27) 
['expansion']

>  <ref_pdb>  (27) 
d0160a

>  <HIPPO Pose ID>  (27) 
39368

>  <distance_score>  (27) 
0.976622

>  <original ID>  (27) 
IRPJMEHEHAKAJE-LBPRGKRZSA-N

>  <ref_mols>  (27) 
d0160a,d0254a

>  <SLURM_JOB_NAME>  (27) 
BulkDock.place:Flavi_NS5_RdRp:RdRp_knitwork_primer_grip_n_pocket_impure_split4000_batch002

>  <fragmenstein_runtime>  (27) 
[11.819782257080078]

>  <fragmenstein_error>  (27) 
['']

>  <energy_score>  (27) 
-16.83226

>  <inchikey>  (27) 
IRPJMEHEHAKAJE-LBPRGKRZSA-N

>  <SLURM_JOB_ID>  (27) 
211034

>  <scratch_subdir>  (27) 
['/opt/xchem-fragalysis-2/maxwin/BulkDock/SCRATCH/211034/C16150-P12']

$$$$
39373
     RDKit          3D

 22 24  0  0  0  0  0  0  0  0999 V2000
  -18.2653  -44.4507  -22.7967 O   0  0  0  0  0  0  0  0  0  0  0  0
  -17.4967  -44.2753  -21.8395 C   0  0  0  0  0  0  0  0  0  0  0  0
  -16.1898  -43.7938  -22.0480 N   0  0  0  0  0  0  0  0  0  0  0  0
  -16.1541  -42.6464  -22.8787 O   0  0  0  0  0  0  0  0  0  0  0  0
  -14.8153  -42.2387  -23.1619 C   0  0  1  0  0  0  0  0  0  0  0  0
  -14.8768  -41.2850  -24.3401 C   0  0  0  0  0  0  0  0  0  0  0  0
  -14.6956  -39.9217  -23.7149 C   0  0  0  0  0  0  0  0  0  0  0  0
  -13.8423  -40.1212  -22.5842 O   0  0  0  0  0  0  0  0  0  0  0  0
  -14.2056  -41.4004  -22.0351 C   0  0  0  0  0  0  0  0  0  0  0  0
  -17.4161  -45.3507  -20.9010 N   0  0  0  0  0  0  0  0  0  0  0  0
  -18.6947  -45.9010  -20.4761 C   0  0  0  0  0  0  0  0  0  0  0  0
  -18.7576  -46.0526  -18.9438 C   0  0  0  0  0  0  0  0  0  0  0  0
  -17.7292  -45.2811  -18.2338 N   0  0  0  0  0  0  0  0  0  0  0  0
  -18.0083  -44.7397  -16.9421 C   0  0  0  0  0  0  0  0  0  0  0  0
  -19.0424  -45.2216  -16.1358 C   0  0  0  0  0  0  0  0  0  0  0  0
  -19.2634  -44.6649  -14.8753 C   0  0  0  0  0  0  0  0  0  0  0  0
  -18.4488  -43.6290  -14.4543 C   0  0  0  0  0  0  0  0  0  0  0  0
  -17.4557  -43.1146  -15.2054 N   0  0  0  0  0  0  0  0  0  0  0  0
  -17.2644  -43.6762  -16.4242 C   0  0  0  0  0  0  0  0  0  0  0  0
  -16.4082  -45.3388  -18.7198 C   0  0  0  0  0  0  0  0  0  0  0  0
  -15.4035  -45.1274  -18.0395 O   0  0  0  0  0  0  0  0  0  0  0  0
  -16.2741  -45.8575  -20.1549 C   0  0  0  0  0  0  0  0  0  0  0  0
  1  2  2  0
  2  3  1  0
  3  4  1  0
  5  4  1  1
  5  6  1  0
  6  7  1  0
  7  8  1  0
  8  9  1  0
  2 10  1  0
 10 11  1  0
 11 12  1  0
 12 13  1  0
 13 14  1  0
 14 15  2  0
 15 16  1  0
 16 17  2  0
 17 18  1  0
 18 19  2  0
 13 20  1  0
 20 21  2  0
 20 22  1  0
  9  5  1  0
 22 10  1  0
 19 14  1  0
M  END
>  <csv_name>  (28) 
RdRp_knitwork_primer_grip_n_pocket_impure_split4000_batch002.csv

>  <exports>  (28) 
['/opt/xchem-fragalysis-2/maxwin/BulkDock/OUTPUTS/RdRp_knitwork_primer_grip_n_pocket_impure_split4000_batch002_211034.sdf']

>  <original SMILES>  (28) 
O=C(NO[C@H]1CCOC1)N1CCN(c2cccnc2)C(=O)C1

>  <tags>  (28) 
['Fragmenstein placed']

>  <alias>  (28) 
None

>  <fragmenstein_outcome>  (28) 
['acceptable']

>  <HIPPO Compound ID>  (28) 
16150

>  <name>  (28) 
IRPJMEHEHAKAJE-LBPRGKRZSA-N

>  <fragmenstein_mode>  (28) 
['expansion']

>  <ref_pdb>  (28) 
d0254a

>  <HIPPO Pose ID>  (28) 
39373

>  <distance_score>  (28) 
0.938255

>  <original ID>  (28) 
IRPJMEHEHAKAJE-LBPRGKRZSA-N

>  <ref_mols>  (28) 
d0160a,d0254a

>  <SLURM_JOB_NAME>  (28) 
BulkDock.place:Flavi_NS5_RdRp:RdRp_knitwork_primer_grip_n_pocket_impure_split4000_batch002

>  <fragmenstein_runtime>  (28) 
[10.72376537322998]

>  <fragmenstein_error>  (28) 
['']

>  <energy_score>  (28) 
-15.841015

>  <inchikey>  (28) 
IRPJMEHEHAKAJE-LBPRGKRZSA-N

>  <SLURM_JOB_ID>  (28) 
211034

>  <scratch_subdir>  (28) 
['/opt/xchem-fragalysis-2/maxwin/BulkDock/SCRATCH/211034/C16150-P26']

$$$$
39785
     RDKit          3D

 14 15  0  0  0  0  0  0  0  0999 V2000
  -19.1090  -37.5000  -22.0234 C   0  0  0  0  0  0  0  0  0  0  0  0
  -18.4403  -36.3203  -22.7253 C   0  0  2  0  0  0  0  0  0  0  0  0
  -19.0420  -35.1257  -22.1782 O   0  0  0  0  0  0  0  0  0  0  0  0
  -19.7918  -34.4661  -23.2049 C   0  0  0  0  0  0  0  0  0  0  0  0
  -19.9011  -35.4306  -24.3618 C   0  0  0  0  0  0  0  0  0  0  0  0
  -18.6208  -36.2263  -24.2360 C   0  0  2  0  0  0  0  0  0  0  0  0
  -18.7028  -37.7803  -25.1236 S   0  0  0  0  0  3  0  0  0  0  0  0
  -19.0806  -37.4673  -26.7053 O   0  0  0  0  0  1  0  0  0  0  0  0
  -16.9427  -38.2606  -25.0213 C   0  0  0  0  0  0  0  0  0  0  0  0
  -16.8379  -39.7639  -25.2500 C   0  0  0  0  0  0  0  0  0  0  0  0
  -15.4380  -40.3162  -24.9969 C   0  0  0  0  0  0  0  0  0  0  0  0
  -14.9741  -40.4699  -23.5292 C   0  0  0  0  0  0  0  0  0  0  0  0
  -15.4931  -41.8513  -23.5417 N   0  0  0  0  0  0  0  0  0  0  0  0
  -15.3689  -41.8616  -25.0149 C   0  0  0  0  0  0  0  0  0  0  0  0
  2  1  1  1
  2  3  1  0
  3  4  1  0
  4  5  1  0
  6  5  1  1
  6  7  1  0
  7  8  1  6
  7  9  1  0
  9 10  1  0
 10 11  1  0
 11 12  1  0
 12 13  1  0
 13 14  1  0
  6  2  1  0
 14 11  1  0
M  CHG  2   7   1   8  -1
M  END
>  <csv_name>  (29) 
RdRp_knitwork_primer_grip_n_pocket_impure_split4000_batch005.csv

>  <exports>  (29) 
['/opt/xchem-fragalysis-2/maxwin/BulkDock/OUTPUTS/RdRp_knitwork_primer_grip_n_pocket_impure_split4000_batch005_211037.sdf']

>  <original SMILES>  (29) 
C[C@@H]1OCC[C@@H]1[S@@+]([O-])CCC1CNC1

>  <tags>  (29) 
['Fragmenstein placed']

>  <alias>  (29) 
None

>  <fragmenstein_outcome>  (29) 
['acceptable']

>  <HIPPO Compound ID>  (29) 
21804

>  <name>  (29) 
AERBMRZOJIZISH-BXGCZWRVSA-N

>  <fragmenstein_mode>  (29) 
['expansion']

>  <ref_pdb>  (29) 
d0254a

>  <HIPPO Pose ID>  (29) 
39785

>  <distance_score>  (29) 
0.978291

>  <original ID>  (29) 
AERBMRZOJIZISH-BXGCZWRVSA-N

>  <ref_mols>  (29) 
d0254a,d0866a

>  <SLURM_JOB_NAME>  (29) 
BulkDock.place:Flavi_NS5_RdRp:RdRp_knitwork_primer_grip_n_pocket_impure_split4000_batch005

>  <fragmenstein_runtime>  (29) 
[5.732467412948608]

>  <fragmenstein_error>  (29) 
['']

>  <energy_score>  (29) 
-38.953418

>  <inchikey>  (29) 
AERBMRZOJIZISH-BXGCZWRVSA-N

>  <SLURM_JOB_ID>  (29) 
211037

>  <scratch_subdir>  (29) 
['/opt/xchem-fragalysis-2/maxwin/BulkDock/SCRATCH/211037/C21804-P26']

$$$$
39797
     RDKit          3D

 14 15  0  0  0  0  0  0  0  0999 V2000
  -19.1971  -37.5402  -22.1867 C   0  0  0  0  0  0  0  0  0  0  0  0
  -18.4079  -36.4139  -22.8497 C   0  0  2  0  0  0  0  0  0  0  0  0
  -18.8667  -35.1873  -22.2404 O   0  0  0  0  0  0  0  0  0  0  0  0
  -19.5292  -34.3885  -23.2253 C   0  0  0  0  0  0  0  0  0  0  0  0
  -19.7458  -35.2637  -24.4350 C   0  0  0  0  0  0  0  0  0  0  0  0
  -18.5873  -36.2355  -24.3538 C   0  0  2  0  0  0  0  0  0  0  0  0
  -18.9310  -37.7276  -25.2955 S   0  0  0  0  0  3  0  0  0  0  0  0
  -19.3166  -37.2777  -26.8421 O   0  0  0  0  0  1  0  0  0  0  0  0
  -17.2575  -38.4600  -25.2917 C   0  0  0  0  0  0  0  0  0  0  0  0
  -17.4039  -39.9717  -25.4534 C   0  0  0  0  0  0  0  0  0  0  0  0
  -16.0574  -40.6953  -25.4192 C   0  0  0  0  0  0  0  0  0  0  0  0
  -15.2791  -40.7877  -24.0859 C   0  0  0  0  0  0  0  0  0  0  0  0
  -15.9504  -42.0736  -23.8151 N   0  0  0  0  0  0  0  0  0  0  0  0
  -16.1949  -42.2276  -25.2696 C   0  0  0  0  0  0  0  0  0  0  0  0
  2  1  1  1
  2  3  1  0
  3  4  1  0
  4  5  1  0
  6  5  1  1
  6  7  1  0
  7  8  1  6
  7  9  1  0
  9 10  1  0
 10 11  1  0
 11 12  1  0
 12 13  1  0
 13 14  1  0
  6  2  1  0
 14 11  1  0
M  CHG  2   7   1   8  -1
M  END
>  <csv_name>  (30) 
RdRp_knitwork_primer_grip_n_pocket_impure_split4000_batch005.csv

>  <exports>  (30) 
['/opt/xchem-fragalysis-2/maxwin/BulkDock/OUTPUTS/RdRp_knitwork_primer_grip_n_pocket_impure_split4000_batch005_211037.sdf']

>  <original SMILES>  (30) 
C[C@@H]1OCC[C@@H]1[S@@+]([O-])CCC1CNC1

>  <tags>  (30) 
['Fragmenstein placed']

>  <alias>  (30) 
None

>  <fragmenstein_outcome>  (30) 
['acceptable']

>  <HIPPO Compound ID>  (30) 
21804

>  <name>  (30) 
AERBMRZOJIZISH-BXGCZWRVSA-N

>  <fragmenstein_mode>  (30) 
['expansion']

>  <ref_pdb>  (30) 
d0866a

>  <HIPPO Pose ID>  (30) 
39797

>  <distance_score>  (30) 
0.822547

>  <original ID>  (30) 
AERBMRZOJIZISH-BXGCZWRVSA-N

>  <ref_mols>  (30) 
d0254a,d0866a

>  <SLURM_JOB_NAME>  (30) 
BulkDock.place:Flavi_NS5_RdRp:RdRp_knitwork_primer_grip_n_pocket_impure_split4000_batch005

>  <fragmenstein_runtime>  (30) 
[9.513681411743164]

>  <fragmenstein_error>  (30) 
['']

>  <energy_score>  (30) 
-38.664055

>  <inchikey>  (30) 
AERBMRZOJIZISH-BXGCZWRVSA-N

>  <SLURM_JOB_ID>  (30) 
211037

>  <scratch_subdir>  (30) 
['/opt/xchem-fragalysis-2/maxwin/BulkDock/SCRATCH/211037/C21804-P68']

$$$$
40312
     RDKit          3D

 13 15  0  0  0  0  0  0  0  0999 V2000
  -15.1133  -39.8942  -26.1204 C   0  0  0  0  0  0  0  0  0  0  0  0
  -15.1870  -41.0691  -25.3986 C   0  0  0  0  0  0  0  0  0  0  0  0
  -16.3508  -41.8225  -25.4629 C   0  0  0  0  0  0  0  0  0  0  0  0
  -17.4360  -41.3683  -26.2182 C   0  0  0  0  0  0  0  0  0  0  0  0
  -18.6453  -42.0858  -26.2590 N   0  0  0  0  0  0  0  0  0  0  0  0
  -19.8202  -41.2257  -26.5334 C   0  0  0  0  0  0  0  0  0  0  0  0
  -21.1472  -42.0096  -26.5162 C   0  0  0  0  0  0  0  0  0  0  0  0
  -21.3429  -42.6764  -25.2323 N   0  0  0  0  0  0  0  0  0  0  0  0
  -20.2335  -43.5807  -24.8995 C   0  0  2  0  0  0  0  0  0  0  0  0
  -19.1910  -43.0883  -23.9219 C   0  0  0  0  0  0  0  0  0  0  0  0
  -18.8458  -43.2345  -25.3636 C   0  0  2  0  0  0  0  0  0  0  0  0
  -17.3572  -40.2236  -26.9318 N   0  0  0  0  0  0  0  0  0  0  0  0
  -16.2101  -39.5193  -26.8691 C   0  0  0  0  0  0  0  0  0  0  0  0
  1  2  2  0
  2  3  1  0
  3  4  2  0
  4  5  1  0
  5  6  1  0
  6  7  1  0
  7  8  1  0
  8  9  1  0
  9 10  1  1
 11 10  1  1
  4 12  1  0
 12 13  2  0
 13  1  1  0
 11  5  1  0
 11  9  1  0
M  END
>  <csv_name>  (31) 
RdRp_knitwork_primer_grip_n_pocket_impure_split4000_batch003.csv

>  <exports>  (31) 
['/opt/xchem-fragalysis-2/maxwin/BulkDock/OUTPUTS/RdRp_knitwork_primer_grip_n_pocket_impure_split4000_batch003_211035.sdf']

>  <original SMILES>  (31) 
c1ccc(N2CCN[C@@H]3C[C@@H]32)nc1

>  <tags>  (31) 
['Fragmenstein placed']

>  <alias>  (31) 
None

>  <fragmenstein_outcome>  (31) 
['acceptable']

>  <HIPPO Compound ID>  (31) 
9934

>  <name>  (31) 
NATQNYAUHVHUPB-BDAKNGLRSA-N

>  <fragmenstein_mode>  (31) 
['expansion']

>  <ref_pdb>  (31) 
d0160a

>  <HIPPO Pose ID>  (31) 
40312

>  <distance_score>  (31) 
0.810424

>  <original ID>  (31) 
NATQNYAUHVHUPB-BDAKNGLRSA-N

>  <ref_mols>  (31) 
d0160a,z0193a

>  <SLURM_JOB_NAME>  (31) 
BulkDock.place:Flavi_NS5_RdRp:RdRp_knitwork_primer_grip_n_pocket_impure_split4000_batch003

>  <fragmenstein_runtime>  (31) 
[3.110036849975586]

>  <fragmenstein_error>  (31) 
['']

>  <energy_score>  (31) 
-87.655267

>  <inchikey>  (31) 
NATQNYAUHVHUPB-BDAKNGLRSA-N

>  <SLURM_JOB_ID>  (31) 
211035

>  <scratch_subdir>  (31) 
['/opt/xchem-fragalysis-2/maxwin/BulkDock/SCRATCH/211035/C9934-P12']

$$$$
41179
     RDKit          3D

 22 24  0  0  0  0  0  0  0  0999 V2000
  -22.0881  -39.0762  -25.7205 C   0  0  0  0  0  0  0  0  0  0  0  0
  -21.6031  -40.5166  -25.9738 C   0  0  2  0  0  0  0  0  0  0  0  0
  -20.1024  -40.5390  -26.3716 C   0  0  0  0  0  0  0  0  0  0  0  0
  -19.1470  -40.0697  -25.2775 C   0  0  0  0  0  0  0  0  0  0  0  0
  -19.5570  -39.7350  -24.1675 O   0  0  0  0  0  0  0  0  0  0  0  0
  -17.7948  -40.0963  -25.5667 N   0  0  0  0  0  0  0  0  0  0  0  0
  -17.1765  -40.6212  -26.7734 C   0  0  0  0  0  0  0  0  0  0  0  0
  -16.4056  -41.8916  -26.3964 C   0  0  0  0  0  0  0  0  0  0  0  0
  -15.6440  -41.7910  -25.1770 O   0  0  0  0  0  0  0  0  0  0  0  0
  -15.4433  -40.4200  -24.7419 C   0  0  2  0  0  0  0  0  0  0  0  0
  -14.6087  -40.3400  -23.4942 C   0  0  0  0  0  0  0  0  0  0  0  0
  -14.4260  -41.3405  -22.5086 C   0  0  0  0  0  0  0  0  0  0  0  0
  -13.5829  -40.7799  -21.5816 C   0  0  0  0  0  0  0  0  0  0  0  0
  -13.3133  -39.5237  -22.0304 N   0  0  0  0  0  0  0  0  0  0  0  0
  -13.9362  -39.2171  -23.1808 N   0  0  0  0  0  0  0  0  0  0  0  0
  -16.8266  -39.7597  -24.5083 C   0  0  0  0  0  0  0  0  0  0  0  0
  -22.5333  -41.2053  -27.0308 C   0  0  0  0  0  0  0  0  0  0  0  0
  -23.9460  -41.4613  -26.4699 C   0  0  0  0  0  0  0  0  0  0  0  0
  -24.8145  -42.2668  -27.4388 C   0  0  0  0  0  0  0  0  0  0  0  0
  -24.1648  -43.5297  -27.8008 N   0  0  0  0  0  0  0  0  0  0  0  0
  -22.9163  -43.2582  -28.5030 C   0  0  0  0  0  0  0  0  0  0  0  0
  -21.9530  -42.5148  -27.5854 C   0  0  0  0  0  0  0  0  0  0  0  0
  2  1  1  6
  2  3  1  0
  3  4  1  0
  4  5  2  0
  4  6  1  0
  6  7  1  0
  7  8  1  0
  8  9  1  0
  9 10  1  0
 10 11  1  1
 11 12  1  0
 12 13  2  0
 13 14  1  0
 14 15  1  0
 10 16  1  0
  2 17  1  0
 17 18  1  0
 18 19  1  0
 19 20  1  0
 20 21  1  0
 21 22  1  0
 16  6  1  0
 22 17  1  0
 15 11  2  0
M  END
>  <csv_name>  (32) 
RdRp_knitwork_primer_grip_n_pocket_impure_split4000_batch006.csv

>  <exports>  (32) 
['/opt/xchem-fragalysis-2/maxwin/BulkDock/OUTPUTS/RdRp_knitwork_primer_grip_n_pocket_impure_split4000_batch006_211038.sdf']

>  <original SMILES>  (32) 
C[C@H](CC(=O)N1CCO[C@H](c2cc[nH]n2)C1)C1CCNCC1

>  <tags>  (32) 
['Fragmenstein placed']

>  <alias>  (32) 
None

>  <fragmenstein_outcome>  (32) 
['acceptable']

>  <HIPPO Compound ID>  (32) 
8412

>  <name>  (32) 
KUDSYFXDEZNMFY-DOMZBBRYSA-N

>  <fragmenstein_mode>  (32) 
['expansion']

>  <ref_pdb>  (32) 
d0160a

>  <HIPPO Pose ID>  (32) 
41179

>  <distance_score>  (32) 
0.802761

>  <original ID>  (32) 
KUDSYFXDEZNMFY-DOMZBBRYSA-N

>  <ref_mols>  (32) 
d0160a,d0851a

>  <SLURM_JOB_NAME>  (32) 
BulkDock.place:Flavi_NS5_RdRp:RdRp_knitwork_primer_grip_n_pocket_impure_split4000_batch006

>  <fragmenstein_runtime>  (32) 
[3.31825852394104]

>  <fragmenstein_error>  (32) 
['']

>  <energy_score>  (32) 
-49.783545

>  <inchikey>  (32) 
KUDSYFXDEZNMFY-DOMZBBRYSA-N

>  <SLURM_JOB_ID>  (32) 
211038

>  <scratch_subdir>  (32) 
['/opt/xchem-fragalysis-2/maxwin/BulkDock/SCRATCH/211038/C8412-P12']

$$$$
41307
     RDKit          3D

 17 18  0  0  0  0  0  0  0  0999 V2000
  -17.0976  -39.0345  -26.7801 C   0  0  0  0  0  0  0  0  0  0  0  0
  -16.2418  -39.0152  -25.6802 C   0  0  0  0  0  0  0  0  0  0  0  0
  -16.5911  -38.2870  -24.5392 C   0  0  0  0  0  0  0  0  0  0  0  0
  -15.6827  -38.1838  -23.4864 N   0  0  0  0  0  0  0  0  0  0  0  0
  -15.9973  -37.4682  -22.2498 C   0  0  0  0  0  0  0  0  0  0  0  0
  -14.7017  -37.1766  -21.4773 C   0  0  0  0  0  0  0  0  0  0  0  0
  -14.5562  -38.0798  -20.2509 C   0  0  0  0  0  0  0  0  0  0  0  0
  -13.2110  -38.0876  -19.6450 N   0  0  0  0  0  0  0  0  0  0  0  0
  -12.1641  -38.6405  -20.5288 C   0  0  0  0  0  0  0  0  0  0  0  0
  -12.5025  -40.0073  -21.0352 C   0  0  0  0  0  0  0  0  0  0  0  0
  -13.3238  -40.2805  -22.0335 N   0  0  0  0  0  0  0  0  0  0  0  0
  -13.5680  -41.6236  -21.9498 C   0  0  0  0  0  0  0  0  0  0  0  0
  -12.8108  -42.1908  -20.9559 C   0  0  0  0  0  0  0  0  0  0  0  0
  -12.0873  -41.1635  -20.4192 N   0  0  0  0  0  0  0  0  0  0  0  0
  -17.7925  -37.5843  -24.5948 C   0  0  0  0  0  0  0  0  0  0  0  0
  -18.5833  -37.6619  -25.7350 C   0  0  0  0  0  0  0  0  0  0  0  0
  -18.2726  -38.3662  -26.8378 N   0  0  0  0  0  0  0  0  0  0  0  0
  1  2  2  0
  2  3  1  0
  3  4  1  0
  4  5  1  0
  5  6  1  0
  6  7  1  0
  7  8  1  0
  8  9  1  0
  9 10  1  0
 10 11  2  0
 11 12  1  0
 12 13  2  0
 13 14  1  0
  3 15  2  0
 15 16  1  0
 16 17  2  0
 17  1  1  0
 14 10  1  0
M  END
>  <csv_name>  (33) 
RdRp_knitwork_primer_grip_n_pocket_impure_split4000_batch002.csv

>  <exports>  (33) 
['/opt/xchem-fragalysis-2/maxwin/BulkDock/OUTPUTS/RdRp_knitwork_primer_grip_n_pocket_impure_split4000_batch002_211034.sdf']

>  <original SMILES>  (33) 
c1cc(NCCCNCc2ncc[nH]2)ccn1

>  <tags>  (33) 
['Fragmenstein placed']

>  <alias>  (33) 
None

>  <fragmenstein_outcome>  (33) 
['acceptable']

>  <HIPPO Compound ID>  (33) 
10674

>  <name>  (33) 
UGPMJSLBUHWQSO-UHFFFAOYSA-N

>  <fragmenstein_mode>  (33) 
['expansion']

>  <ref_pdb>  (33) 
d0191a

>  <HIPPO Pose ID>  (33) 
41307

>  <distance_score>  (33) 
0.778887

>  <original ID>  (33) 
UGPMJSLBUHWQSO-UHFFFAOYSA-N

>  <ref_mols>  (33) 
d0191a,z0875c

>  <SLURM_JOB_NAME>  (33) 
BulkDock.place:Flavi_NS5_RdRp:RdRp_knitwork_primer_grip_n_pocket_impure_split4000_batch002

>  <fragmenstein_runtime>  (33) 
[2.487729072570801]

>  <fragmenstein_error>  (33) 
['']

>  <energy_score>  (33) 
-26.725444

>  <inchikey>  (33) 
UGPMJSLBUHWQSO-UHFFFAOYSA-N

>  <SLURM_JOB_ID>  (33) 
211034

>  <scratch_subdir>  (33) 
['/opt/xchem-fragalysis-2/maxwin/BulkDock/SCRATCH/211034/C10674-P19']

$$$$
41312
     RDKit          3D

 23 25  0  0  0  0  0  0  0  0999 V2000
   -8.7623  -37.8884  -20.0693 C   0  0  0  0  0  0  0  0  0  0  0  0
   -9.8298  -37.3124  -20.7539 C   0  0  0  0  0  0  0  0  0  0  0  0
  -11.1125  -37.8347  -20.6411 C   0  0  0  0  0  0  0  0  0  0  0  0
  -11.3596  -38.9378  -19.8216 C   0  0  0  0  0  0  0  0  0  0  0  0
  -12.7450  -39.5438  -19.6782 C   0  0  1  0  0  0  0  0  0  0  0  0
  -13.8297  -38.5666  -19.4155 N   0  0  0  0  0  0  0  0  0  0  0  0
  -14.4805  -37.9701  -20.5935 C   0  0  0  0  0  0  0  0  0  0  0  0
  -15.8931  -38.5313  -20.7963 C   0  0  0  0  0  0  0  0  0  0  0  0
  -16.5867  -37.9864  -22.0440 C   0  0  0  0  0  0  0  0  0  0  0  0
  -15.9192  -38.4062  -23.2816 N   0  0  0  0  0  0  0  0  0  0  0  0
  -16.6779  -38.3523  -24.4649 C   0  0  0  0  0  0  0  0  0  0  0  0
  -16.3436  -39.1531  -25.5582 C   0  0  0  0  0  0  0  0  0  0  0  0
  -17.1056  -39.0737  -26.7228 C   0  0  0  0  0  0  0  0  0  0  0  0
  -18.1579  -38.2378  -26.8867 N   0  0  0  0  0  0  0  0  0  0  0  0
  -18.4089  -37.4209  -25.8490 C   0  0  0  0  0  0  0  0  0  0  0  0
  -17.7084  -37.4323  -24.6526 C   0  0  0  0  0  0  0  0  0  0  0  0
  -13.0311  -40.5955  -20.7222 C   0  0  0  0  0  0  0  0  0  0  0  0
  -13.7222  -40.4822  -21.8449 N   0  0  0  0  0  0  0  0  0  0  0  0
  -13.9372  -41.7586  -22.2795 C   0  0  0  0  0  0  0  0  0  0  0  0
  -13.2886  -42.6570  -21.4718 C   0  0  0  0  0  0  0  0  0  0  0  0
  -12.6234  -41.8997  -20.5519 N   0  0  0  0  0  0  0  0  0  0  0  0
  -10.2696  -39.5198  -19.1418 C   0  0  0  0  0  0  0  0  0  0  0  0
   -8.9808  -38.9992  -19.2645 C   0  0  0  0  0  0  0  0  0  0  0  0
  1  2  2  0
  2  3  1  0
  3  4  2  0
  4  5  1  0
  5  6  1  6
  6  7  1  0
  7  8  1  0
  8  9  1  0
  9 10  1  0
 10 11  1  0
 11 12  2  0
 12 13  1  0
 13 14  2  0
 14 15  1  0
 15 16  2  0
  5 17  1  0
 17 18  2  0
 18 19  1  0
 19 20  2  0
 20 21  1  0
  4 22  1  0
 22 23  2  0
 23  1  1  0
 16 11  1  0
 21 17  1  0
M  END
>  <csv_name>  (34) 
RdRp_knitwork_primer_grip_n_pocket_impure_split4000_batch002.csv

>  <exports>  (34) 
['/opt/xchem-fragalysis-2/maxwin/BulkDock/OUTPUTS/RdRp_knitwork_primer_grip_n_pocket_impure_split4000_batch002_211034.sdf']

>  <original SMILES>  (34) 
c1ccc([C@@H](NCCCNc2ccncc2)c2ncc[nH]2)cc1

>  <tags>  (34) 
['Fragmenstein placed']

>  <alias>  (34) 
None

>  <fragmenstein_outcome>  (34) 
['acceptable']

>  <HIPPO Compound ID>  (34) 
8711

>  <name>  (34) 
BMRWUESAXGNPLO-QGZVFWFLSA-N

>  <fragmenstein_mode>  (34) 
['expansion']

>  <ref_pdb>  (34) 
d0191a

>  <HIPPO Pose ID>  (34) 
41312

>  <distance_score>  (34) 
0.900928

>  <original ID>  (34) 
BMRWUESAXGNPLO-QGZVFWFLSA-N

>  <ref_mols>  (34) 
d0191a,z0875c

>  <SLURM_JOB_NAME>  (34) 
BulkDock.place:Flavi_NS5_RdRp:RdRp_knitwork_primer_grip_n_pocket_impure_split4000_batch002

>  <fragmenstein_runtime>  (34) 
[6.1579430103302]

>  <fragmenstein_error>  (34) 
['']

>  <energy_score>  (34) 
-22.00663

>  <inchikey>  (34) 
BMRWUESAXGNPLO-QGZVFWFLSA-N

>  <SLURM_JOB_ID>  (34) 
211034

>  <scratch_subdir>  (34) 
['/opt/xchem-fragalysis-2/maxwin/BulkDock/SCRATCH/211034/C8711-P19']

$$$$
41372
     RDKit          3D

 22 24  0  0  0  0  0  0  0  0999 V2000
  -24.2998  -42.9119  -27.3253 O   0  0  0  0  0  0  0  0  0  0  0  0
  -23.6671  -41.9819  -26.8370 C   0  0  0  0  0  0  0  0  0  0  0  0
  -22.2190  -41.7467  -27.1677 C   0  0  0  0  0  0  0  0  0  0  0  0
  -21.5020  -40.9673  -26.0628 C   0  0  0  0  0  0  0  0  0  0  0  0
  -20.0385  -40.7437  -26.4799 C   0  0  0  0  0  0  0  0  0  0  0  0
  -19.1322  -40.2347  -25.3694 C   0  0  0  0  0  0  0  0  0  0  0  0
  -19.5921  -39.8664  -24.2911 O   0  0  0  0  0  0  0  0  0  0  0  0
  -17.7726  -40.2247  -25.6351 N   0  0  0  0  0  0  0  0  0  0  0  0
  -17.1433  -40.7516  -26.8356 C   0  0  0  0  0  0  0  0  0  0  0  0
  -16.5589  -42.1166  -26.4825 C   0  0  0  0  0  0  0  0  0  0  0  0
  -15.8184  -42.0948  -25.1276 C   0  0  0  0  0  0  0  0  0  0  0  0
  -15.5148  -40.6555  -24.6786 C   0  0  2  0  0  0  0  0  0  0  0  0
  -14.7212  -40.5735  -23.4210 C   0  0  0  0  0  0  0  0  0  0  0  0
  -14.4255  -41.4571  -22.4070 C   0  0  0  0  0  0  0  0  0  0  0  0
  -13.5559  -40.7475  -21.5554 C   0  0  0  0  0  0  0  0  0  0  0  0
  -13.3346  -39.5007  -21.9799 N   0  0  0  0  0  0  0  0  0  0  0  0
  -14.0676  -39.4177  -23.0964 N   0  0  0  0  0  0  0  0  0  0  0  0
  -16.8345  -39.8520  -24.5733 C   0  0  0  0  0  0  0  0  0  0  0  0
  -22.2665  -39.6660  -25.8046 C   0  0  0  0  0  0  0  0  0  0  0  0
  -23.7214  -39.9293  -25.4865 C   0  0  0  0  0  0  0  0  0  0  0  0
  -24.4074  -39.1287  -24.8561 O   0  0  0  0  0  0  0  0  0  0  0  0
  -24.2664  -41.0725  -26.0083 N   0  0  0  0  0  0  0  0  0  0  0  0
  1  2  2  0
  2  3  1  0
  3  4  1  0
  4  5  1  0
  5  6  1  0
  6  7  2  0
  6  8  1  0
  8  9  1  0
  9 10  1  0
 10 11  1  0
 11 12  1  0
 12 13  1  1
 13 14  2  0
 14 15  1  0
 15 16  2  0
 16 17  1  0
 12 18  1  0
  4 19  1  0
 19 20  1  0
 20 21  2  0
 20 22  1  0
 22  2  1  0
 18  8  1  0
 17 13  1  0
M  END
>  <csv_name>  (35) 
RdRp_knitwork_primer_grip_n_pocket_impure_split4000_batch006.csv

>  <exports>  (35) 
['/opt/xchem-fragalysis-2/maxwin/BulkDock/OUTPUTS/RdRp_knitwork_primer_grip_n_pocket_impure_split4000_batch006_211038.sdf']

>  <original SMILES>  (35) 
O=C1CC(CC(=O)N2CCC[C@H](c3ccn[nH]3)C2)CC(=O)N1

>  <tags>  (35) 
['Fragmenstein placed']

>  <alias>  (35) 
None

>  <fragmenstein_outcome>  (35) 
['acceptable']

>  <HIPPO Compound ID>  (35) 
8618

>  <name>  (35) 
IFDYFVJPLPTESE-NSHDSACASA-N

>  <fragmenstein_mode>  (35) 
['expansion']

>  <ref_pdb>  (35) 
d0160a

>  <HIPPO Pose ID>  (35) 
41372

>  <distance_score>  (35) 
0.723121

>  <original ID>  (35) 
IFDYFVJPLPTESE-NSHDSACASA-N

>  <ref_mols>  (35) 
d0160a,d0851a

>  <SLURM_JOB_NAME>  (35) 
BulkDock.place:Flavi_NS5_RdRp:RdRp_knitwork_primer_grip_n_pocket_impure_split4000_batch006

>  <fragmenstein_runtime>  (35) 
[2.9159255027770996]

>  <fragmenstein_error>  (35) 
['']

>  <energy_score>  (35) 
-48.255499

>  <inchikey>  (35) 
IFDYFVJPLPTESE-NSHDSACASA-N

>  <SLURM_JOB_ID>  (35) 
211038

>  <scratch_subdir>  (35) 
['/opt/xchem-fragalysis-2/maxwin/BulkDock/SCRATCH/211038/C8618-P12']

$$$$
41377
     RDKit          3D

 22 24  0  0  0  0  0  0  0  0999 V2000
  -23.2763  -39.7792  -22.0691 O   0  0  0  0  0  0  0  0  0  0  0  0
  -23.1060  -39.6693  -23.2803 C   0  0  0  0  0  0  0  0  0  0  0  0
  -21.9191  -40.2697  -23.9887 C   0  0  0  0  0  0  0  0  0  0  0  0
  -21.5847  -39.5102  -25.2748 C   0  0  0  0  0  0  0  0  0  0  0  0
  -20.3324  -40.1203  -25.9638 C   0  0  0  0  0  0  0  0  0  0  0  0
  -19.0653  -39.6547  -25.2711 C   0  0  0  0  0  0  0  0  0  0  0  0
  -19.1437  -38.8735  -24.3235 O   0  0  0  0  0  0  0  0  0  0  0  0
  -17.8491  -40.1316  -25.7115 N   0  0  0  0  0  0  0  0  0  0  0  0
  -17.6263  -41.1377  -26.7333 C   0  0  0  0  0  0  0  0  0  0  0  0
  -17.0259  -42.3997  -26.1127 C   0  0  0  0  0  0  0  0  0  0  0  0
  -16.1864  -42.1292  -24.8543 C   0  0  0  0  0  0  0  0  0  0  0  0
  -15.5558  -40.7307  -24.8787 C   0  0  2  0  0  0  0  0  0  0  0  0
  -14.7382  -40.4280  -23.6629 C   0  0  0  0  0  0  0  0  0  0  0  0
  -14.4972  -41.0857  -22.4763 C   0  0  0  0  0  0  0  0  0  0  0  0
  -13.6237  -40.2394  -21.7663 C   0  0  0  0  0  0  0  0  0  0  0  0
  -13.3377  -39.1209  -22.4384 N   0  0  0  0  0  0  0  0  0  0  0  0
  -14.0324  -39.2558  -23.5800 N   0  0  0  0  0  0  0  0  0  0  0  0
  -16.6436  -39.6469  -25.0458 C   0  0  0  0  0  0  0  0  0  0  0  0
  -22.8199  -39.5018  -26.1724 C   0  0  0  0  0  0  0  0  0  0  0  0
  -24.0601  -39.0257  -25.4476 C   0  0  0  0  0  0  0  0  0  0  0  0
  -25.0674  -38.6699  -26.0545 O   0  0  0  0  0  0  0  0  0  0  0  0
  -24.0412  -39.0662  -24.0796 N   0  0  0  0  0  0  0  0  0  0  0  0
  1  2  2  0
  2  3  1  0
  3  4  1  0
  4  5  1  0
  5  6  1  0
  6  7  2  0
  6  8  1  0
  8  9  1  0
  9 10  1  0
 10 11  1  0
 11 12  1  0
 12 13  1  1
 13 14  2  0
 14 15  1  0
 15 16  2  0
 16 17  1  0
 12 18  1  0
  4 19  1  0
 19 20  1  0
 20 21  2  0
 20 22  1  0
 22  2  1  0
 18  8  1  0
 17 13  1  0
M  END
>  <csv_name>  (36) 
RdRp_knitwork_primer_grip_n_pocket_impure_split4000_batch006.csv

>  <exports>  (36) 
['/opt/xchem-fragalysis-2/maxwin/BulkDock/OUTPUTS/RdRp_knitwork_primer_grip_n_pocket_impure_split4000_batch006_211038.sdf']

>  <original SMILES>  (36) 
O=C1CC(CC(=O)N2CCC[C@H](c3ccn[nH]3)C2)CC(=O)N1

>  <tags>  (36) 
['Fragmenstein placed']

>  <alias>  (36) 
None

>  <fragmenstein_outcome>  (36) 
['acceptable']

>  <HIPPO Compound ID>  (36) 
8618

>  <name>  (36) 
IFDYFVJPLPTESE-NSHDSACASA-N

>  <fragmenstein_mode>  (36) 
['expansion']

>  <ref_pdb>  (36) 
d0851a

>  <HIPPO Pose ID>  (36) 
41377

>  <distance_score>  (36) 
0.723414

>  <original ID>  (36) 
IFDYFVJPLPTESE-NSHDSACASA-N

>  <ref_mols>  (36) 
d0160a,d0851a

>  <SLURM_JOB_NAME>  (36) 
BulkDock.place:Flavi_NS5_RdRp:RdRp_knitwork_primer_grip_n_pocket_impure_split4000_batch006

>  <fragmenstein_runtime>  (36) 
[4.065148591995239]

>  <fragmenstein_error>  (36) 
['']

>  <energy_score>  (36) 
-46.96181

>  <inchikey>  (36) 
IFDYFVJPLPTESE-NSHDSACASA-N

>  <SLURM_JOB_ID>  (36) 
211038

>  <scratch_subdir>  (36) 
['/opt/xchem-fragalysis-2/maxwin/BulkDock/SCRATCH/211038/C8618-P66']

$$$$
41379
     RDKit          3D

 20 22  0  0  0  0  0  0  0  0999 V2000
  -23.3125  -37.7583  -22.9071 O   0  0  0  0  0  0  0  0  0  0  0  0
  -22.3010  -38.1502  -23.4808 C   0  0  0  0  0  0  0  0  0  0  0  0
  -21.3556  -37.1886  -24.1565 C   0  0  0  0  0  0  0  0  0  0  0  0
  -20.6135  -37.8555  -25.3019 C   0  0  0  0  0  0  0  0  0  0  0  0
  -19.8834  -39.0975  -24.7815 C   0  0  2  0  0  0  0  0  0  0  0  0
  -19.0551  -39.7263  -25.9159 C   0  0  0  0  0  0  0  0  0  0  0  0
  -18.0195  -40.6539  -25.4588 N   0  0  0  0  0  0  0  0  0  0  0  0
  -17.5123  -41.4942  -26.5377 C   0  0  0  0  0  0  0  0  0  0  0  0
  -16.7289  -42.6681  -25.9498 C   0  0  0  0  0  0  0  0  0  0  0  0
  -15.8780  -42.2927  -24.7325 C   0  0  0  0  0  0  0  0  0  0  0  0
  -15.5987  -40.7903  -24.7175 C   0  0  2  0  0  0  0  0  0  0  0  0
  -14.7440  -40.3608  -23.5717 C   0  0  0  0  0  0  0  0  0  0  0  0
  -14.4315  -40.9214  -22.3528 C   0  0  0  0  0  0  0  0  0  0  0  0
  -13.5467  -40.0061  -21.7541 C   0  0  0  0  0  0  0  0  0  0  0  0
  -13.3271  -38.9322  -22.5184 N   0  0  0  0  0  0  0  0  0  0  0  0
  -14.0638  -39.1742  -23.6176 N   0  0  0  0  0  0  0  0  0  0  0  0
  -16.9307  -39.9997  -24.7164 C   0  0  0  0  0  0  0  0  0  0  0  0
  -20.9229  -40.0596  -24.2182 C   0  0  0  0  0  0  0  0  0  0  0  0
  -20.8646  -41.2792  -24.3327 O   0  0  0  0  0  0  0  0  0  0  0  0
  -21.9468  -39.4762  -23.5025 N   0  0  0  0  0  0  0  0  0  0  0  0
  1  2  2  0
  2  3  1  0
  3  4  1  0
  4  5  1  0
  5  6  1  6
  6  7  1  0
  7  8  1  0
  8  9  1  0
  9 10  1  0
 10 11  1  0
 11 12  1  1
 12 13  2  0
 13 14  1  0
 14 15  2  0
 15 16  1  0
 11 17  1  0
  5 18  1  0
 18 19  2  0
 18 20  1  0
 20  2  1  0
 17  7  1  0
 16 12  1  0
M  END
>  <csv_name>  (37) 
RdRp_knitwork_primer_grip_n_pocket_impure_split4000_batch006.csv

>  <exports>  (37) 
['/opt/xchem-fragalysis-2/maxwin/BulkDock/OUTPUTS/RdRp_knitwork_primer_grip_n_pocket_impure_split4000_batch006_211038.sdf']

>  <original SMILES>  (37) 
O=C1CC[C@H](CN2CCC[C@H](c3ccn[nH]3)C2)C(=O)N1

>  <tags>  (37) 
['Fragmenstein placed']

>  <alias>  (37) 
None

>  <fragmenstein_outcome>  (37) 
['acceptable']

>  <HIPPO Compound ID>  (37) 
8625

>  <name>  (37) 
NKWIUEXWXTXNHS-WDEREUQCSA-N

>  <fragmenstein_mode>  (37) 
['expansion']

>  <ref_pdb>  (37) 
d0851a

>  <HIPPO Pose ID>  (37) 
41379

>  <distance_score>  (37) 
0.753243

>  <original ID>  (37) 
NKWIUEXWXTXNHS-WDEREUQCSA-N

>  <ref_mols>  (37) 
d0160a,d0851a

>  <SLURM_JOB_NAME>  (37) 
BulkDock.place:Flavi_NS5_RdRp:RdRp_knitwork_primer_grip_n_pocket_impure_split4000_batch006

>  <fragmenstein_runtime>  (37) 
[2.2209980487823486]

>  <fragmenstein_error>  (37) 
['']

>  <energy_score>  (37) 
-47.877951

>  <inchikey>  (37) 
NKWIUEXWXTXNHS-WDEREUQCSA-N

>  <SLURM_JOB_ID>  (37) 
211038

>  <scratch_subdir>  (37) 
['/opt/xchem-fragalysis-2/maxwin/BulkDock/SCRATCH/211038/C8625-P66']

$$$$
41592
     RDKit          3D

 17 18  0  0  0  0  0  0  0  0999 V2000
  -15.8691  -45.3158  -20.7308 C   0  0  0  0  0  0  0  0  0  0  0  0
  -14.9420  -44.4335  -21.2565 C   0  0  0  0  0  0  0  0  0  0  0  0
  -13.9984  -43.8564  -20.4061 C   0  0  0  0  0  0  0  0  0  0  0  0
  -13.0044  -43.0656  -20.9684 N   0  0  0  0  0  0  0  0  0  0  0  0
  -12.4571  -41.9317  -20.2391 C   0  0  0  0  0  0  0  0  0  0  0  0
  -12.8000  -40.6402  -20.9796 C   0  0  0  0  0  0  0  0  0  0  0  0
  -14.2261  -40.7109  -21.5310 C   0  0  0  0  0  0  0  0  0  0  0  0
  -14.8330  -39.4390  -21.8908 N   0  0  0  0  0  0  0  0  0  0  0  0
  -14.1556  -38.7621  -22.9845 C   0  0  0  0  0  0  0  0  0  0  0  0
  -13.2086  -37.7285  -22.4720 C   0  0  0  0  0  0  0  0  0  0  0  0
  -11.9138  -37.6432  -22.7015 N   0  0  0  0  0  0  0  0  0  0  0  0
  -11.5049  -36.4943  -22.0714 C   0  0  0  0  0  0  0  0  0  0  0  0
  -12.5676  -35.8592  -21.4769 C   0  0  0  0  0  0  0  0  0  0  0  0
  -13.6468  -36.6491  -21.7445 N   0  0  0  0  0  0  0  0  0  0  0  0
  -14.0221  -44.2074  -19.0626 C   0  0  0  0  0  0  0  0  0  0  0  0
  -14.9847  -45.1017  -18.6270 C   0  0  0  0  0  0  0  0  0  0  0  0
  -15.8983  -45.6817  -19.4321 N   0  0  0  0  0  0  0  0  0  0  0  0
  1  2  2  0
  2  3  1  0
  3  4  1  0
  4  5  1  0
  5  6  1  0
  6  7  1  0
  7  8  1  0
  8  9  1  0
  9 10  1  0
 10 11  2  0
 11 12  1  0
 12 13  2  0
 13 14  1  0
  3 15  2  0
 15 16  1  0
 16 17  2  0
 17  1  1  0
 14 10  1  0
M  END
>  <csv_name>  (38) 
RdRp_knitwork_primer_grip_n_pocket_impure_split4000_batch006.csv

>  <exports>  (38) 
['/opt/xchem-fragalysis-2/maxwin/BulkDock/OUTPUTS/RdRp_knitwork_primer_grip_n_pocket_impure_split4000_batch006_211038.sdf']

>  <original SMILES>  (38) 
c1cc(NCCCNCc2ncc[nH]2)ccn1

>  <tags>  (38) 
['Fragmenstein placed']

>  <alias>  (38) 
None

>  <fragmenstein_outcome>  (38) 
['acceptable']

>  <HIPPO Compound ID>  (38) 
10674

>  <name>  (38) 
UGPMJSLBUHWQSO-UHFFFAOYSA-N

>  <fragmenstein_mode>  (38) 
['expansion']

>  <ref_pdb>  (38) 
d0472a

>  <HIPPO Pose ID>  (38) 
41592

>  <distance_score>  (38) 
0.9153

>  <original ID>  (38) 
UGPMJSLBUHWQSO-UHFFFAOYSA-N

>  <ref_mols>  (38) 
d0472a,z0103a

>  <SLURM_JOB_NAME>  (38) 
BulkDock.place:Flavi_NS5_RdRp:RdRp_knitwork_primer_grip_n_pocket_impure_split4000_batch006

>  <fragmenstein_runtime>  (38) 
[1.9128997325897217]

>  <fragmenstein_error>  (38) 
['']

>  <energy_score>  (38) 
-18.922116

>  <inchikey>  (38) 
UGPMJSLBUHWQSO-UHFFFAOYSA-N

>  <SLURM_JOB_ID>  (38) 
211038

>  <scratch_subdir>  (38) 
['/opt/xchem-fragalysis-2/maxwin/BulkDock/SCRATCH/211038/C10674-P42']

$$$$
41594
     RDKit          3D

 20 21  0  0  0  0  0  0  0  0999 V2000
  -14.9623  -36.9306  -19.3900 C   0  0  0  0  0  0  0  0  0  0  0  0
  -14.9603  -36.3338  -20.8013 C   0  0  0  0  0  0  0  0  0  0  0  0
  -16.2869  -36.5853  -21.5189 C   0  0  0  0  0  0  0  0  0  0  0  0
  -13.7262  -36.6533  -21.5196 N   0  0  0  0  0  0  0  0  0  0  0  0
  -12.5850  -35.8994  -21.3411 C   0  0  0  0  0  0  0  0  0  0  0  0
  -11.6181  -36.4858  -22.1112 C   0  0  0  0  0  0  0  0  0  0  0  0
  -12.1327  -37.5562  -22.7819 N   0  0  0  0  0  0  0  0  0  0  0  0
  -13.4007  -37.6567  -22.4124 C   0  0  0  0  0  0  0  0  0  0  0  0
  -14.3315  -38.6694  -23.0031 C   0  0  0  0  0  0  0  0  0  0  0  0
  -14.9272  -39.5383  -22.0112 N   0  0  0  0  0  0  0  0  0  0  0  0
  -14.2233  -40.7797  -21.7721 C   0  0  0  0  0  0  0  0  0  0  0  0
  -12.8553  -40.6571  -21.0997 C   0  0  0  0  0  0  0  0  0  0  0  0
  -12.5105  -41.9555  -20.3704 C   0  0  0  0  0  0  0  0  0  0  0  0
  -13.0610  -43.0905  -21.1042 N   0  0  0  0  0  0  0  0  0  0  0  0
  -14.0319  -43.8873  -20.5014 C   0  0  0  0  0  0  0  0  0  0  0  0
  -15.0035  -44.4689  -21.3160 C   0  0  0  0  0  0  0  0  0  0  0  0
  -15.9084  -45.3520  -20.7542 C   0  0  0  0  0  0  0  0  0  0  0  0
  -15.8902  -45.7147  -19.4541 N   0  0  0  0  0  0  0  0  0  0  0  0
  -14.9470  -45.1341  -18.6846 C   0  0  0  0  0  0  0  0  0  0  0  0
  -14.0001  -44.2424  -19.1581 C   0  0  0  0  0  0  0  0  0  0  0  0
  1  2  1  0
  2  3  1  0
  2  4  1  0
  4  5  1  0
  5  6  2  0
  6  7  1  0
  7  8  2  0
  8  9  1  0
  9 10  1  0
 10 11  1  0
 11 12  1  0
 12 13  1  0
 13 14  1  0
 14 15  1  0
 15 16  2  0
 16 17  1  0
 17 18  2  0
 18 19  1  0
 19 20  2  0
  8  4  1  0
 20 15  1  0
M  END
>  <csv_name>  (39) 
RdRp_knitwork_primer_grip_n_pocket_impure_split4000_batch006.csv

>  <exports>  (39) 
['/opt/xchem-fragalysis-2/maxwin/BulkDock/OUTPUTS/RdRp_knitwork_primer_grip_n_pocket_impure_split4000_batch006_211038.sdf']

>  <original SMILES>  (39) 
CC(C)n1ccnc1CNCCCNc1ccncc1

>  <tags>  (39) 
['Fragmenstein placed']

>  <alias>  (39) 
None

>  <fragmenstein_outcome>  (39) 
['acceptable']

>  <HIPPO Compound ID>  (39) 
10675

>  <name>  (39) 
HOMYHQUMKPETRB-UHFFFAOYSA-N

>  <fragmenstein_mode>  (39) 
['expansion']

>  <ref_pdb>  (39) 
d0472a

>  <HIPPO Pose ID>  (39) 
41594

>  <distance_score>  (39) 
0.927899

>  <original ID>  (39) 
HOMYHQUMKPETRB-UHFFFAOYSA-N

>  <ref_mols>  (39) 
d0472a,z0103a

>  <SLURM_JOB_NAME>  (39) 
BulkDock.place:Flavi_NS5_RdRp:RdRp_knitwork_primer_grip_n_pocket_impure_split4000_batch006

>  <fragmenstein_runtime>  (39) 
[2.4220774173736572]

>  <fragmenstein_error>  (39) 
['']

>  <energy_score>  (39) 
-14.986

>  <inchikey>  (39) 
HOMYHQUMKPETRB-UHFFFAOYSA-N

>  <SLURM_JOB_ID>  (39) 
211038

>  <scratch_subdir>  (39) 
['/opt/xchem-fragalysis-2/maxwin/BulkDock/SCRATCH/211038/C10675-P42']

$$$$
41596
     RDKit          3D

 23 25  0  0  0  0  0  0  0  0999 V2000
  -17.7647  -37.7409  -25.2811 C   0  0  0  0  0  0  0  0  0  0  0  0
  -16.6594  -38.3688  -25.8476 C   0  0  0  0  0  0  0  0  0  0  0  0
  -15.5685  -38.7195  -25.0476 C   0  0  0  0  0  0  0  0  0  0  0  0
  -15.5603  -38.4490  -23.6682 C   0  0  0  0  0  0  0  0  0  0  0  0
  -14.3557  -38.8638  -22.8231 C   0  0  2  0  0  0  0  0  0  0  0  0
  -14.8151  -39.4358  -21.5531 N   0  0  0  0  0  0  0  0  0  0  0  0
  -14.2482  -40.7418  -21.2791 C   0  0  0  0  0  0  0  0  0  0  0  0
  -12.7669  -40.7122  -20.9052 C   0  0  0  0  0  0  0  0  0  0  0  0
  -12.3835  -42.0248  -20.2325 C   0  0  0  0  0  0  0  0  0  0  0  0
  -12.9860  -43.1285  -20.9632 N   0  0  0  0  0  0  0  0  0  0  0  0
  -13.9968  -43.8977  -20.4038 C   0  0  0  0  0  0  0  0  0  0  0  0
  -14.9478  -44.4570  -21.2584 C   0  0  0  0  0  0  0  0  0  0  0  0
  -15.8944  -45.3205  -20.7369 C   0  0  0  0  0  0  0  0  0  0  0  0
  -15.9380  -45.6837  -19.4381 N   0  0  0  0  0  0  0  0  0  0  0  0
  -15.0216  -45.1161  -18.6275 C   0  0  0  0  0  0  0  0  0  0  0  0
  -14.0410  -44.2394  -19.0586 C   0  0  0  0  0  0  0  0  0  0  0  0
  -13.4008  -37.7364  -22.5128 C   0  0  0  0  0  0  0  0  0  0  0  0
  -12.1101  -37.6801  -22.7923 N   0  0  0  0  0  0  0  0  0  0  0  0
  -11.6520  -36.5266  -22.2058 C   0  0  0  0  0  0  0  0  0  0  0  0
  -12.6793  -35.8495  -21.5980 C   0  0  0  0  0  0  0  0  0  0  0  0
  -13.7873  -36.6144  -21.8180 N   0  0  0  0  0  0  0  0  0  0  0  0
  -16.6925  -37.8228  -23.1152 C   0  0  0  0  0  0  0  0  0  0  0  0
  -17.7820  -37.4684  -23.9156 C   0  0  0  0  0  0  0  0  0  0  0  0
  1  2  2  0
  2  3  1  0
  3  4  2  0
  4  5  1  0
  5  6  1  1
  6  7  1  0
  7  8  1  0
  8  9  1  0
  9 10  1  0
 10 11  1  0
 11 12  2  0
 12 13  1  0
 13 14  2  0
 14 15  1  0
 15 16  2  0
  5 17  1  0
 17 18  2  0
 18 19  1  0
 19 20  2  0
 20 21  1  0
  4 22  1  0
 22 23  2  0
 23  1  1  0
 16 11  1  0
 21 17  1  0
M  END
>  <csv_name>  (40) 
RdRp_knitwork_primer_grip_n_pocket_impure_split4000_batch006.csv

>  <exports>  (40) 
['/opt/xchem-fragalysis-2/maxwin/BulkDock/OUTPUTS/RdRp_knitwork_primer_grip_n_pocket_impure_split4000_batch006_211038.sdf']

>  <original SMILES>  (40) 
c1ccc([C@H](NCCCNc2ccncc2)c2ncc[nH]2)cc1

>  <tags>  (40) 
['Fragmenstein placed']

>  <alias>  (40) 
None

>  <fragmenstein_outcome>  (40) 
['acceptable']

>  <HIPPO Compound ID>  (40) 
8711

>  <name>  (40) 
BMRWUESAXGNPLO-KRWDZBQOSA-N

>  <fragmenstein_mode>  (40) 
['expansion']

>  <ref_pdb>  (40) 
d0472a

>  <HIPPO Pose ID>  (40) 
41596

>  <distance_score>  (40) 
0.995842

>  <original ID>  (40) 
BMRWUESAXGNPLO-KRWDZBQOSA-N

>  <ref_mols>  (40) 
d0472a,z0103a

>  <SLURM_JOB_NAME>  (40) 
BulkDock.place:Flavi_NS5_RdRp:RdRp_knitwork_primer_grip_n_pocket_impure_split4000_batch006

>  <fragmenstein_runtime>  (40) 
[2.7292873859405518]

>  <fragmenstein_error>  (40) 
['']

>  <energy_score>  (40) 
-18.414961

>  <inchikey>  (40) 
BMRWUESAXGNPLO-KRWDZBQOSA-N

>  <SLURM_JOB_ID>  (40) 
211038

>  <scratch_subdir>  (40) 
['/opt/xchem-fragalysis-2/maxwin/BulkDock/SCRATCH/211038/C8711-P42']

$$$$
41746
     RDKit          3D

 23 24  0  0  0  0  0  0  0  0999 V2000
  -15.0689  -44.4393  -22.1275 C   0  0  0  0  0  0  0  0  0  0  0  0
  -16.4052  -44.0520  -22.5543 N   0  0  0  0  0  0  0  0  0  0  0  0
  -16.4846  -43.1711  -23.7308 C   0  0  0  0  0  0  0  0  0  0  0  0
  -16.0664  -41.7154  -23.3740 C   0  0  1  0  0  0  0  0  0  0  0  0
  -16.4668  -41.4037  -22.0270 O   0  0  0  0  0  0  0  0  0  0  0  0
  -14.5625  -41.4752  -23.6091 C   0  0  0  0  0  0  0  0  0  0  0  0
  -13.8829  -40.5937  -22.6487 N   0  0  0  0  0  0  0  0  0  0  0  0
  -13.2264  -41.2102  -21.5050 C   0  0  0  0  0  0  0  0  0  0  0  0
  -14.0679  -39.2225  -22.7650 C   0  0  0  0  0  0  0  0  0  0  0  0
  -14.6814  -38.7458  -23.7224 O   0  0  0  0  0  0  0  0  0  0  0  0
  -13.4563  -38.3068  -21.6972 C   0  0  2  0  0  0  0  0  0  0  0  0
  -13.4024  -38.8592  -20.4424 F   0  0  0  0  0  0  0  0  0  0  0  0
  -14.1777  -36.9879  -21.5479 C   0  0  0  0  0  0  0  0  0  0  0  0
  -13.0619  -36.0603  -21.1367 C   0  0  0  0  0  0  0  0  0  0  0  0
  -11.9073  -36.4876  -21.8542 O   0  0  0  0  0  0  0  0  0  0  0  0
  -12.0451  -37.8954  -22.1065 C   0  0  0  0  0  0  0  0  0  0  0  0
  -17.5922  -44.4539  -21.9316 C   0  0  0  0  0  0  0  0  0  0  0  0
  -18.6923  -44.2096  -22.4277 O   0  0  0  0  0  0  0  0  0  0  0  0
  -17.4924  -45.2256  -20.7158 C   0  0  0  0  0  0  0  0  0  0  0  0
  -18.3428  -46.1763  -20.1902 C   0  0  0  0  0  0  0  0  0  0  0  0
  -17.9549  -46.5452  -18.9222 N   0  0  0  0  0  0  0  0  0  0  0  0
  -16.9001  -45.8193  -18.6549 C   0  0  0  0  0  0  0  0  0  0  0  0
  -16.6032  -44.9894  -19.6896 N   0  0  0  0  0  0  0  0  0  0  0  0
  1  2  1  0
  2  3  1  0
  3  4  1  0
  4  5  1  1
  4  6  1  0
  6  7  1  0
  7  8  1  0
  7  9  1  0
  9 10  2  0
  9 11  1  0
 11 12  1  1
 11 13  1  0
 13 14  1  0
 14 15  1  0
 15 16  1  0
  2 17  1  0
 17 18  2  0
 17 19  1  0
 19 20  2  0
 20 21  1  0
 21 22  2  0
 22 23  1  0
 16 11  1  0
 23 19  1  0
M  END
>  <csv_name>  (41) 
RdRp_knitwork_primer_grip_n_pocket_impure_split4000_batch002.csv

>  <exports>  (41) 
['/opt/xchem-fragalysis-2/maxwin/BulkDock/OUTPUTS/RdRp_knitwork_primer_grip_n_pocket_impure_split4000_batch002_211034.sdf']

>  <original SMILES>  (41) 
CN(C[C@@H](O)CN(C)C(=O)[C@]1(F)CCOC1)C(=O)c1cnc[nH]1

>  <tags>  (41) 
['Fragmenstein placed']

>  <alias>  (41) 
None

>  <fragmenstein_outcome>  (41) 
['acceptable']

>  <HIPPO Compound ID>  (41) 
11551

>  <name>  (41) 
RXFSJXUDFMVGLT-YGRLFVJLSA-N

>  <fragmenstein_mode>  (41) 
['expansion']

>  <ref_pdb>  (41) 
d0254a

>  <HIPPO Pose ID>  (41) 
41746

>  <distance_score>  (41) 
0.898718

>  <original ID>  (41) 
RXFSJXUDFMVGLT-YGRLFVJLSA-N

>  <ref_mols>  (41) 
d0254a,z0103a

>  <SLURM_JOB_NAME>  (41) 
BulkDock.place:Flavi_NS5_RdRp:RdRp_knitwork_primer_grip_n_pocket_impure_split4000_batch002

>  <fragmenstein_runtime>  (41) 
[7.395780324935913]

>  <fragmenstein_error>  (41) 
['']

>  <energy_score>  (41) 
-104.421588

>  <inchikey>  (41) 
RXFSJXUDFMVGLT-YGRLFVJLSA-N

>  <SLURM_JOB_ID>  (41) 
211034

>  <scratch_subdir>  (41) 
['/opt/xchem-fragalysis-2/maxwin/BulkDock/SCRATCH/211034/C11551-P26']

$$$$
41941
     RDKit          3D

 21 22  0  0  0  0  0  0  0  0999 V2000
  -16.4681  -37.4010  -21.4148 C   0  0  0  0  0  0  0  0  0  0  0  0
  -15.2449  -36.9520  -20.5889 C   0  0  0  0  0  0  0  0  0  0  0  0
  -15.0631  -37.8849  -19.3773 C   0  0  0  0  0  0  0  0  0  0  0  0
  -15.6285  -35.5621  -20.0056 C   0  0  0  0  0  0  0  0  0  0  0  0
  -13.9964  -36.8917  -21.3883 N   0  0  0  0  0  0  0  0  0  0  0  0
  -13.0127  -35.9363  -21.2167 C   0  0  0  0  0  0  0  0  0  0  0  0
  -12.0161  -36.2331  -22.1067 C   0  0  0  0  0  0  0  0  0  0  0  0
  -12.3479  -37.3318  -22.8362 N   0  0  0  0  0  0  0  0  0  0  0  0
  -13.5055  -37.7627  -22.3553 C   0  0  0  0  0  0  0  0  0  0  0  0
  -14.1152  -39.0537  -22.8130 C   0  0  0  0  0  0  0  0  0  0  0  0
  -14.0707  -40.0737  -21.7652 N   0  0  0  0  0  0  0  0  0  0  0  0
  -12.7019  -40.5069  -21.4629 C   0  0  0  0  0  0  0  0  0  0  0  0
  -12.3835  -40.4857  -19.9760 C   0  0  0  0  0  0  0  0  0  0  0  0
  -13.2531  -41.4533  -19.1706 C   0  0  0  0  0  0  0  0  0  0  0  0
  -12.8400  -42.8303  -19.4441 N   0  0  0  0  0  0  0  0  0  0  0  0
  -13.8864  -43.7091  -19.7425 C   0  0  0  0  0  0  0  0  0  0  0  0
  -14.5329  -44.4364  -18.7420 C   0  0  0  0  0  0  0  0  0  0  0  0
  -15.6025  -45.2796  -19.0566 C   0  0  0  0  0  0  0  0  0  0  0  0
  -16.0571  -45.3760  -20.3710 C   0  0  0  0  0  0  0  0  0  0  0  0
  -15.4398  -44.6326  -21.3716 C   0  0  0  0  0  0  0  0  0  0  0  0
  -14.3600  -43.8085  -21.0546 C   0  0  0  0  0  0  0  0  0  0  0  0
  1  2  1  0
  2  3  1  0
  2  4  1  0
  2  5  1  0
  5  6  1  0
  6  7  2  0
  7  8  1  0
  8  9  2  0
  9 10  1  0
 10 11  1  0
 11 12  1  0
 12 13  1  0
 13 14  1  0
 14 15  1  0
 15 16  1  0
 16 17  2  0
 17 18  1  0
 18 19  2  0
 19 20  1  0
 20 21  2  0
  9  5  1  0
 21 16  1  0
M  END
>  <csv_name>  (42) 
RdRp_knitwork_primer_grip_n_pocket_impure_split4000_batch006.csv

>  <exports>  (42) 
['/opt/xchem-fragalysis-2/maxwin/BulkDock/OUTPUTS/RdRp_knitwork_primer_grip_n_pocket_impure_split4000_batch006_211038.sdf']

>  <original SMILES>  (42) 
CC(C)(C)n1ccnc1CNCCCNc1ccccc1

>  <tags>  (42) 
['Fragmenstein placed']

>  <alias>  (42) 
None

>  <fragmenstein_outcome>  (42) 
['acceptable']

>  <HIPPO Compound ID>  (42) 
8703

>  <name>  (42) 
ADQQNIKDSYVSNG-UHFFFAOYSA-N

>  <fragmenstein_mode>  (42) 
['expansion']

>  <ref_pdb>  (42) 
d0472a

>  <HIPPO Pose ID>  (42) 
41941

>  <distance_score>  (42) 
0.829068

>  <original ID>  (42) 
ADQQNIKDSYVSNG-UHFFFAOYSA-N

>  <ref_mols>  (42) 
d0472a,z0103a

>  <SLURM_JOB_NAME>  (42) 
BulkDock.place:Flavi_NS5_RdRp:RdRp_knitwork_primer_grip_n_pocket_impure_split4000_batch006

>  <fragmenstein_runtime>  (42) 
[9.905572414398193]

>  <fragmenstein_error>  (42) 
['']

>  <energy_score>  (42) 
-32.777251

>  <inchikey>  (42) 
ADQQNIKDSYVSNG-UHFFFAOYSA-N

>  <SLURM_JOB_ID>  (42) 
211038

>  <scratch_subdir>  (42) 
['/opt/xchem-fragalysis-2/maxwin/BulkDock/SCRATCH/211038/C8703-P42']

$$$$
41945
     RDKit          3D

 20 21  0  0  0  0  0  0  0  0999 V2000
  -12.4401  -34.9681  -18.6873 C   0  0  0  0  0  0  0  0  0  0  0  0
  -12.9341  -34.5831  -20.0843 C   0  0  0  0  0  0  0  0  0  0  0  0
  -12.3341  -33.2442  -20.5046 C   0  0  0  0  0  0  0  0  0  0  0  0
  -12.6713  -35.6838  -21.0685 C   0  0  0  0  0  0  0  0  0  0  0  0
  -11.4814  -36.1669  -21.5657 C   0  0  0  0  0  0  0  0  0  0  0  0
  -11.8110  -37.2859  -22.2781 N   0  0  0  0  0  0  0  0  0  0  0  0
  -13.1746  -37.4340  -22.2238 C   0  0  0  0  0  0  0  0  0  0  0  0
  -13.9115  -38.5680  -22.8650 C   0  0  0  0  0  0  0  0  0  0  0  0
  -14.6567  -39.2991  -21.8598 N   0  0  0  0  0  0  0  0  0  0  0  0
  -14.1469  -40.6190  -21.5490 C   0  0  0  0  0  0  0  0  0  0  0  0
  -12.7369  -40.6306  -20.9576 C   0  0  0  0  0  0  0  0  0  0  0  0
  -12.4965  -41.9416  -20.2145 C   0  0  0  0  0  0  0  0  0  0  0  0
  -13.0356  -43.0480  -20.9951 N   0  0  0  0  0  0  0  0  0  0  0  0
  -14.0289  -43.8478  -20.4323 C   0  0  0  0  0  0  0  0  0  0  0  0
  -14.0275  -44.2307  -19.0901 C   0  0  0  0  0  0  0  0  0  0  0  0
  -14.9885  -45.1154  -18.5998 C   0  0  0  0  0  0  0  0  0  0  0  0
  -15.9480  -45.6481  -19.4561 C   0  0  0  0  0  0  0  0  0  0  0  0
  -15.9497  -45.2935  -20.8017 C   0  0  0  0  0  0  0  0  0  0  0  0
  -14.9863  -44.4083  -21.2862 C   0  0  0  0  0  0  0  0  0  0  0  0
  -13.7129  -36.4396  -21.5452 N   0  0  0  0  0  0  0  0  0  0  0  0
  1  2  1  0
  2  3  1  0
  2  4  1  0
  4  5  2  0
  5  6  1  0
  6  7  1  0
  7  8  1  0
  8  9  1  0
  9 10  1  0
 10 11  1  0
 11 12  1  0
 12 13  1  0
 13 14  1  0
 14 15  2  0
 15 16  1  0
 16 17  2  0
 17 18  1  0
 18 19  2  0
  7 20  2  0
 20  4  1  0
 19 14  1  0
M  END
>  <csv_name>  (43) 
RdRp_knitwork_primer_grip_n_pocket_impure_split4000_batch006.csv

>  <exports>  (43) 
['/opt/xchem-fragalysis-2/maxwin/BulkDock/OUTPUTS/RdRp_knitwork_primer_grip_n_pocket_impure_split4000_batch006_211038.sdf']

>  <original SMILES>  (43) 
CC(C)c1c[nH]c(CNCCCNc2ccccc2)n1

>  <tags>  (43) 
['Fragmenstein placed']

>  <alias>  (43) 
None

>  <fragmenstein_outcome>  (43) 
['acceptable']

>  <HIPPO Compound ID>  (43) 
8706

>  <name>  (43) 
AKRKZZAARJVRCB-UHFFFAOYSA-N

>  <fragmenstein_mode>  (43) 
['expansion']

>  <ref_pdb>  (43) 
d0472a

>  <HIPPO Pose ID>  (43) 
41945

>  <distance_score>  (43) 
0.974442

>  <original ID>  (43) 
AKRKZZAARJVRCB-UHFFFAOYSA-N

>  <ref_mols>  (43) 
d0472a,z0103a

>  <SLURM_JOB_NAME>  (43) 
BulkDock.place:Flavi_NS5_RdRp:RdRp_knitwork_primer_grip_n_pocket_impure_split4000_batch006

>  <fragmenstein_runtime>  (43) 
[5.840334415435791]

>  <fragmenstein_error>  (43) 
['']

>  <energy_score>  (43) 
-18.899672

>  <inchikey>  (43) 
AKRKZZAARJVRCB-UHFFFAOYSA-N

>  <SLURM_JOB_ID>  (43) 
211038

>  <scratch_subdir>  (43) 
['/opt/xchem-fragalysis-2/maxwin/BulkDock/SCRATCH/211038/C8706-P42']

$$$$
41950
     RDKit          3D

 20 22  0  0  0  0  0  0  0  0999 V2000
  -15.8940  -45.4533  -20.2763 C   0  0  0  0  0  0  0  0  0  0  0  0
  -15.1370  -44.7987  -21.2378 C   0  0  0  0  0  0  0  0  0  0  0  0
  -14.1424  -43.8939  -20.8503 C   0  0  0  0  0  0  0  0  0  0  0  0
  -13.9378  -43.5488  -19.5103 C   0  0  0  0  0  0  0  0  0  0  0  0
  -13.1551  -42.4728  -19.0811 N   0  0  0  0  0  0  0  0  0  0  0  0
  -12.2308  -41.7718  -19.9704 C   0  0  0  0  0  0  0  0  0  0  0  0
  -12.8289  -40.5097  -20.5966 C   0  0  0  0  0  0  0  0  0  0  0  0
  -13.9884  -40.8043  -21.5443 C   0  0  0  0  0  0  0  0  0  0  0  0
  -14.7703  -39.6618  -21.9834 N   0  0  0  0  0  0  0  0  0  0  0  0
  -14.1578  -38.8193  -22.9889 C   0  0  0  0  0  0  0  0  0  0  0  0
  -13.2370  -37.7868  -22.4305 C   0  0  0  0  0  0  0  0  0  0  0  0
  -11.9540  -37.6608  -22.7326 N   0  0  0  0  0  0  0  0  0  0  0  0
  -11.5331  -36.5198  -22.0947 C   0  0  0  0  0  0  0  0  0  0  0  0
  -12.5722  -35.9206  -21.4256 C   0  0  0  0  0  0  0  0  0  0  0  0
  -13.6362  -36.7447  -21.6286 N   0  0  0  0  0  0  0  0  0  0  0  0
  -15.0080  -36.4917  -21.1305 C   0  0  0  0  0  0  0  0  0  0  0  0
  -15.4826  -37.0439  -19.8059 C   0  0  0  0  0  0  0  0  0  0  0  0
  -15.3287  -35.5646  -19.9793 C   0  0  0  0  0  0  0  0  0  0  0  0
  -14.7189  -44.2195  -18.5597 C   0  0  0  0  0  0  0  0  0  0  0  0
  -15.6682  -45.1792  -18.9324 C   0  0  0  0  0  0  0  0  0  0  0  0
  1  2  2  0
  2  3  1  0
  3  4  2  0
  4  5  1  0
  5  6  1  0
  6  7  1  0
  7  8  1  0
  8  9  1  0
  9 10  1  0
 10 11  1  0
 11 12  2  0
 12 13  1  0
 13 14  2  0
 14 15  1  0
 15 16  1  0
 16 17  1  0
 17 18  1  0
  4 19  1  0
 19 20  2  0
 20  1  1  0
 15 11  1  0
 18 16  1  0
M  END
>  <csv_name>  (44) 
RdRp_knitwork_primer_grip_n_pocket_impure_split4000_batch006.csv

>  <exports>  (44) 
['/opt/xchem-fragalysis-2/maxwin/BulkDock/OUTPUTS/RdRp_knitwork_primer_grip_n_pocket_impure_split4000_batch006_211038.sdf']

>  <original SMILES>  (44) 
c1ccc(NCCCNCc2nccn2C2CC2)cc1

>  <tags>  (44) 
['Fragmenstein placed']

>  <alias>  (44) 
None

>  <fragmenstein_outcome>  (44) 
['acceptable']

>  <HIPPO Compound ID>  (44) 
8708

>  <name>  (44) 
DKTNGCSWFYUGJV-UHFFFAOYSA-N

>  <fragmenstein_mode>  (44) 
['expansion']

>  <ref_pdb>  (44) 
d0472a

>  <HIPPO Pose ID>  (44) 
41950

>  <distance_score>  (44) 
0.923254

>  <original ID>  (44) 
DKTNGCSWFYUGJV-UHFFFAOYSA-N

>  <ref_mols>  (44) 
d0472a,z0103a

>  <SLURM_JOB_NAME>  (44) 
BulkDock.place:Flavi_NS5_RdRp:RdRp_knitwork_primer_grip_n_pocket_impure_split4000_batch006

>  <fragmenstein_runtime>  (44) 
[5.070309638977051]

>  <fragmenstein_error>  (44) 
['']

>  <energy_score>  (44) 
-13.273085

>  <inchikey>  (44) 
DKTNGCSWFYUGJV-UHFFFAOYSA-N

>  <SLURM_JOB_ID>  (44) 
211038

>  <scratch_subdir>  (44) 
['/opt/xchem-fragalysis-2/maxwin/BulkDock/SCRATCH/211038/C8708-P42']

$$$$
42127
     RDKit          3D

 18 19  0  0  0  0  0  0  0  0999 V2000
  -14.6679  -40.2105  -23.1454 C   0  0  0  0  0  0  0  0  0  0  0  0
  -15.2403  -40.7841  -24.3535 N   0  0  0  0  0  0  0  0  0  0  0  0
  -15.2207  -39.9752  -25.5697 C   0  0  0  0  0  0  0  0  0  0  0  0
  -16.4126  -39.0690  -25.6753 C   0  0  0  0  0  0  0  0  0  0  0  0
  -17.1889  -38.8280  -26.7930 C   0  0  0  0  0  0  0  0  0  0  0  0
  -18.2493  -37.9457  -26.6383 N   0  0  0  0  0  0  0  0  0  0  0  0
  -18.2258  -37.4837  -25.4059 C   0  0  0  0  0  0  0  0  0  0  0  0
  -16.9925  -38.0927  -24.3883 S   0  0  0  0  0  0  0  0  0  0  0  0
  -15.9103  -42.0035  -24.4005 C   0  0  0  0  0  0  0  0  0  0  0  0
  -16.5291  -42.3630  -25.4021 O   0  0  0  0  0  0  0  0  0  0  0  0
  -15.9645  -42.8278  -23.1911 C   0  0  0  0  0  0  0  0  0  0  0  0
  -17.1144  -43.4927  -22.8090 C   0  0  0  0  0  0  0  0  0  0  0  0
  -16.8483  -44.2299  -21.6990 N   0  0  0  0  0  0  0  0  0  0  0  0
  -15.5330  -44.0699  -21.3140 C   0  0  0  0  0  0  0  0  0  0  0  0
  -15.0428  -44.7713  -20.1521 C   0  0  0  0  0  0  0  0  0  0  0  0
  -15.7041  -45.5964  -19.5412 O   0  0  0  0  0  0  0  0  0  0  0  0
  -13.7844  -44.4426  -19.7871 O   0  0  0  0  0  0  0  0  0  0  0  0
  -14.9594  -43.2200  -22.2490 C   0  0  0  0  0  0  0  0  0  0  0  0
  1  2  1  0
  2  3  1  0
  3  4  1  0
  4  5  2  0
  5  6  1  0
  6  7  2  0
  7  8  1  0
  2  9  1  0
  9 10  2  0
  9 11  1  0
 11 12  2  0
 12 13  1  0
 13 14  1  0
 14 15  1  0
 15 16  2  0
 15 17  1  0
 14 18  2  0
  8  4  1  0
 18 11  1  0
M  END
>  <csv_name>  (45) 
RdRp_knitwork_primer_grip_n_pocket_impure_split4000_batch002.csv

>  <exports>  (45) 
['/opt/xchem-fragalysis-2/maxwin/BulkDock/OUTPUTS/RdRp_knitwork_primer_grip_n_pocket_impure_split4000_batch002_211034.sdf']

>  <original SMILES>  (45) 
CN(Cc1cncs1)C(=O)c1c[nH]c(C(=O)O)c1

>  <tags>  (45) 
['Fragmenstein placed']

>  <alias>  (45) 
None

>  <fragmenstein_outcome>  (45) 
['acceptable']

>  <HIPPO Compound ID>  (45) 
10182

>  <name>  (45) 
QFDICOWEDIEKFY-UHFFFAOYSA-N

>  <fragmenstein_mode>  (45) 
['expansion']

>  <ref_pdb>  (45) 
d0615b

>  <HIPPO Pose ID>  (45) 
42127

>  <distance_score>  (45) 
0.898566

>  <original ID>  (45) 
QFDICOWEDIEKFY-UHFFFAOYSA-N

>  <ref_mols>  (45) 
d0472a,d0615b

>  <SLURM_JOB_NAME>  (45) 
BulkDock.place:Flavi_NS5_RdRp:RdRp_knitwork_primer_grip_n_pocket_impure_split4000_batch002

>  <fragmenstein_runtime>  (45) 
[8.678900718688965]

>  <fragmenstein_error>  (45) 
['']

>  <energy_score>  (45) 
-171.291918

>  <inchikey>  (45) 
QFDICOWEDIEKFY-UHFFFAOYSA-N

>  <SLURM_JOB_ID>  (45) 
211034

>  <scratch_subdir>  (45) 
['/opt/xchem-fragalysis-2/maxwin/BulkDock/SCRATCH/211034/C10182-P51']

$$$$
42660
     RDKit          3D

 13 14  0  0  0  0  0  0  0  0999 V2000
  -15.6170  -44.5548  -22.4085 O   0  0  0  0  0  1  0  0  0  0  0  0
  -17.1681  -45.0994  -22.2733 S   0  0  0  0  0  3  0  0  0  0  0  0
  -18.2634  -43.9735  -23.1723 C   0  0  0  0  0  0  0  0  0  0  0  0
  -17.6901  -42.5654  -23.3635 C   0  0  0  0  0  0  0  0  0  0  0  0
  -16.6249  -42.4961  -24.4719 C   0  0  0  0  0  0  0  0  0  0  0  0
  -16.1763  -41.0762  -24.8870 C   0  0  0  0  0  0  0  0  0  0  0  0
  -17.0911  -41.1540  -26.0462 N   0  0  0  0  0  0  0  0  0  0  0  0
  -17.0972  -42.6209  -25.9342 C   0  0  0  0  0  0  0  0  0  0  0  0
  -17.6638  -44.7555  -20.5853 C   0  0  1  0  0  0  0  0  0  0  0  0
  -18.8992  -45.5000  -20.1520 C   0  0  0  0  0  0  0  0  0  0  0  0
  -18.7224  -45.5502  -18.6502 C   0  0  0  0  0  0  0  0  0  0  0  0
  -17.3162  -45.6227  -18.3999 O   0  0  0  0  0  0  0  0  0  0  0  0
  -16.6224  -45.2867  -19.6106 C   0  0  0  0  0  0  0  0  0  0  0  0
  2  1  1  1
  2  3  1  0
  3  4  1  0
  4  5  1  0
  5  6  1  0
  6  7  1  0
  7  8  1  0
  2  9  1  0
  9 10  1  1
 10 11  1  0
 11 12  1  0
 12 13  1  0
  8  5  1  0
 13  9  1  0
M  CHG  2   1  -1   2   1
M  END
>  <csv_name>  (46) 
RdRp_knitwork_primer_grip_n_pocket_impure_split4000_batch000.csv

>  <exports>  (46) 
['/opt/xchem-fragalysis-2/maxwin/BulkDock/OUTPUTS/RdRp_knitwork_primer_grip_n_pocket_impure_split4000_batch000_211032.sdf']

>  <original SMILES>  (46) 
[O-][S@+](CCC1CNC1)[C@H]1CCOC1

>  <tags>  (46) 
['Fragmenstein placed']

>  <alias>  (46) 
None

>  <fragmenstein_outcome>  (46) 
['acceptable']

>  <HIPPO Compound ID>  (46) 
11163

>  <name>  (46) 
CGBYUAUIBZPFRK-TVQRCGJNSA-N

>  <fragmenstein_mode>  (46) 
['expansion']

>  <ref_pdb>  (46) 
d0851a

>  <HIPPO Pose ID>  (46) 
42660

>  <distance_score>  (46) 
0.961466

>  <original ID>  (46) 
CGBYUAUIBZPFRK-TVQRCGJNSA-N

>  <ref_mols>  (46) 
d0254a,d0851a

>  <SLURM_JOB_NAME>  (46) 
BulkDock.place:Flavi_NS5_RdRp:RdRp_knitwork_primer_grip_n_pocket_impure_split4000_batch000

>  <fragmenstein_runtime>  (46) 
[3.8488054275512695]

>  <fragmenstein_error>  (46) 
['']

>  <energy_score>  (46) 
-26.941785

>  <inchikey>  (46) 
CGBYUAUIBZPFRK-TVQRCGJNSA-N

>  <SLURM_JOB_ID>  (46) 
211032

>  <scratch_subdir>  (46) 
['/opt/xchem-fragalysis-2/maxwin/BulkDock/SCRATCH/211032/C11163-P66']

$$$$
43010
     RDKit          3D

 24 25  0  0  0  0  0  0  0  0999 V2000
  -13.8152  -33.3322  -19.5962 C   0  0  0  0  0  0  0  0  0  0  0  0
  -14.4466  -34.7079  -19.7736 C   0  0  0  0  0  0  0  0  0  0  0  0
  -13.7051  -35.6859  -20.6552 C   0  0  0  0  0  0  0  0  0  0  0  0
  -12.4145  -35.4764  -21.1412 C   0  0  0  0  0  0  0  0  0  0  0  0
  -11.7978  -36.4752  -21.8817 C   0  0  0  0  0  0  0  0  0  0  0  0
  -12.3673  -37.6601  -22.1737 N   0  0  0  0  0  0  0  0  0  0  0  0
  -13.6179  -37.8638  -21.6889 C   0  0  0  0  0  0  0  0  0  0  0  0
  -14.2466  -39.2183  -21.8373 C   0  0  0  0  0  0  0  0  0  0  0  0
  -15.4698  -39.2580  -21.9925 O   0  0  0  0  0  0  0  0  0  0  0  0
  -13.4592  -40.3691  -21.6943 N   0  0  0  0  0  0  0  0  0  0  0  0
  -12.0644  -40.2859  -21.2983 C   0  0  0  0  0  0  0  0  0  0  0  0
  -14.0354  -41.7092  -21.7769 C   0  0  0  0  0  0  0  0  0  0  0  0
  -15.0682  -41.9881  -22.8800 C   0  0  0  0  0  0  0  0  0  0  0  0
  -14.5908  -41.7016  -24.3122 C   0  0  0  0  0  0  0  0  0  0  0  0
  -15.6599  -41.0737  -25.0869 N   0  0  0  0  0  0  0  0  0  0  0  0
  -16.6272  -41.9680  -25.6917 C   0  0  0  0  0  0  0  0  0  0  0  0
  -15.6396  -39.6796  -25.1642 C   0  0  0  0  0  0  0  0  0  0  0  0
  -14.7497  -39.0278  -24.6159 O   0  0  0  0  0  0  0  0  0  0  0  0
  -16.6991  -38.9519  -25.8081 C   0  0  0  0  0  0  0  0  0  0  0  0
  -17.5285  -39.1011  -26.8962 C   0  0  0  0  0  0  0  0  0  0  0  0
  -18.4786  -38.0958  -26.9536 N   0  0  0  0  0  0  0  0  0  0  0  0
  -18.1545  -37.2831  -25.9741 C   0  0  0  0  0  0  0  0  0  0  0  0
  -17.0732  -37.7347  -25.2854 N   0  0  0  0  0  0  0  0  0  0  0  0
  -14.3208  -36.9041  -20.9662 C   0  0  0  0  0  0  0  0  0  0  0  0
  1  2  1  0
  2  3  1  0
  3  4  2  0
  4  5  1  0
  5  6  2  0
  6  7  1  0
  7  8  1  0
  8  9  2  0
  8 10  1  0
 10 11  1  0
 10 12  1  0
 12 13  1  0
 13 14  1  0
 14 15  1  0
 15 16  1  0
 15 17  1  0
 17 18  2  0
 17 19  1  0
 19 20  2  0
 20 21  1  0
 21 22  2  0
 22 23  1  0
  7 24  2  0
 24  3  1  0
 23 19  1  0
M  END
>  <csv_name>  (47) 
RdRp_knitwork_primer_grip_n_pocket_impure_split4000_batch003.csv

>  <exports>  (47) 
['/opt/xchem-fragalysis-2/maxwin/BulkDock/OUTPUTS/RdRp_knitwork_primer_grip_n_pocket_impure_split4000_batch003_211035.sdf']

>  <original SMILES>  (47) 
CCc1ccnc(C(=O)N(C)CCCN(C)C(=O)c2cnc[nH]2)c1

>  <tags>  (47) 
['Fragmenstein placed']

>  <alias>  (47) 
None

>  <fragmenstein_outcome>  (47) 
['acceptable']

>  <HIPPO Compound ID>  (47) 
8969

>  <name>  (47) 
CHCQUOPYRFINFW-UHFFFAOYSA-N

>  <fragmenstein_mode>  (47) 
['expansion']

>  <ref_pdb>  (47) 
d0191a

>  <HIPPO Pose ID>  (47) 
43010

>  <distance_score>  (47) 
0.952343

>  <original ID>  (47) 
CHCQUOPYRFINFW-UHFFFAOYSA-N

>  <ref_mols>  (47) 
d0191a,z0103a

>  <SLURM_JOB_NAME>  (47) 
BulkDock.place:Flavi_NS5_RdRp:RdRp_knitwork_primer_grip_n_pocket_impure_split4000_batch003

>  <fragmenstein_runtime>  (47) 
[9.758813619613647]

>  <fragmenstein_error>  (47) 
['']

>  <energy_score>  (47) 
-112.641992

>  <inchikey>  (47) 
CHCQUOPYRFINFW-UHFFFAOYSA-N

>  <SLURM_JOB_ID>  (47) 
211035

>  <scratch_subdir>  (47) 
['/opt/xchem-fragalysis-2/maxwin/BulkDock/SCRATCH/211035/C8969-P19']

$$$$
43576
     RDKit          3D

 22 24  0  0  0  0  0  0  0  0999 V2000
  -17.9195  -43.3691  -23.1006 C   0  0  0  0  0  0  0  0  0  0  0  0
  -17.6811  -42.7979  -21.7858 N   0  0  0  0  0  0  0  0  0  0  0  0
  -18.8216  -42.7442  -20.8726 C   0  0  0  0  0  0  0  0  0  0  0  0
  -19.0635  -44.0823  -20.2358 C   0  0  0  0  0  0  0  0  0  0  0  0
  -19.3704  -44.3303  -18.8757 C   0  0  0  0  0  0  0  0  0  0  0  0
  -19.4510  -45.6950  -18.7696 C   0  0  0  0  0  0  0  0  0  0  0  0
  -19.2013  -46.1857  -20.0168 N   0  0  0  0  0  0  0  0  0  0  0  0
  -19.0072  -45.2263  -20.9379 N   0  0  0  0  0  0  0  0  0  0  0  0
  -16.4247  -42.4897  -21.2800 C   0  0  0  0  0  0  0  0  0  0  0  0
  -16.2894  -42.0921  -20.1178 O   0  0  0  0  0  0  0  0  0  0  0  0
  -15.2045  -42.6521  -22.1884 C   0  0  0  0  0  0  0  0  0  0  0  0
  -14.5704  -41.3212  -22.4683 C   0  0  0  0  0  0  0  0  0  0  0  0
  -13.4835  -40.6917  -21.2700 S   0  0  0  0  0  0  0  0  0  0  0  0
  -13.2713  -39.2826  -22.1950 C   0  0  0  0  0  0  0  0  0  0  0  0
  -13.9111  -39.2435  -23.3365 N   0  0  0  0  0  0  0  0  0  0  0  0
  -14.6374  -40.4247  -23.5326 C   0  0  0  0  0  0  0  0  0  0  0  0
  -15.3796  -40.5724  -24.7894 C   0  0  0  0  0  0  0  0  0  0  0  0
  -15.8129  -39.4136  -25.4518 C   0  0  0  0  0  0  0  0  0  0  0  0
  -16.4411  -39.4775  -26.6963 C   0  0  0  0  0  0  0  0  0  0  0  0
  -16.6609  -40.7065  -27.3000 C   0  0  0  0  0  0  0  0  0  0  0  0
  -16.2593  -41.8703  -26.6569 C   0  0  0  0  0  0  0  0  0  0  0  0
  -15.5951  -41.7988  -25.4254 C   0  0  0  0  0  0  0  0  0  0  0  0
  1  2  1  0
  2  3  1  0
  3  4  1  0
  4  5  1  0
  5  6  2  0
  6  7  1  0
  7  8  1  0
  2  9  1  0
  9 10  2  0
  9 11  1  0
 11 12  1  0
 12 13  1  0
 13 14  1  0
 14 15  2  0
 15 16  1  0
 16 17  1  0
 17 18  2  0
 18 19  1  0
 19 20  2  0
 20 21  1  0
 21 22  2  0
  8  4  2  0
 16 12  2  0
 22 17  1  0
M  END
>  <csv_name>  (48) 
RdRp_knitwork_primer_grip_n_pocket_impure_split4000_batch002.csv

>  <exports>  (48) 
['/opt/xchem-fragalysis-2/maxwin/BulkDock/OUTPUTS/RdRp_knitwork_primer_grip_n_pocket_impure_split4000_batch002_211034.sdf']

>  <original SMILES>  (48) 
CN(Cc1cc[nH]n1)C(=O)Cc1scnc1-c1ccccc1

>  <tags>  (48) 
['Fragmenstein placed']

>  <alias>  (48) 
None

>  <fragmenstein_outcome>  (48) 
['acceptable']

>  <HIPPO Compound ID>  (48) 
8542

>  <name>  (48) 
XVJIJJLKVJOXLC-UHFFFAOYSA-N

>  <fragmenstein_mode>  (48) 
['expansion']

>  <ref_pdb>  (48) 
d0160a

>  <HIPPO Pose ID>  (48) 
43576

>  <distance_score>  (48) 
0.955431

>  <original ID>  (48) 
XVJIJJLKVJOXLC-UHFFFAOYSA-N

>  <ref_mols>  (48) 
d0160a,d0264a

>  <SLURM_JOB_NAME>  (48) 
BulkDock.place:Flavi_NS5_RdRp:RdRp_knitwork_primer_grip_n_pocket_impure_split4000_batch002

>  <fragmenstein_runtime>  (48) 
[5.283971786499023]

>  <fragmenstein_error>  (48) 
['']

>  <energy_score>  (48) 
-87.601074

>  <inchikey>  (48) 
XVJIJJLKVJOXLC-UHFFFAOYSA-N

>  <SLURM_JOB_ID>  (48) 
211034

>  <scratch_subdir>  (48) 
['/opt/xchem-fragalysis-2/maxwin/BulkDock/SCRATCH/211034/C8542-P12']

$$$$
43655
     RDKit          3D

 17 18  0  0  0  0  0  0  0  0999 V2000
  -14.6392  -38.0386  -21.9858 C   0  0  0  0  0  0  0  0  0  0  0  0
  -13.6492  -38.9388  -22.7038 C   0  0  0  0  0  0  0  0  0  0  0  0
  -13.3120  -40.1135  -21.9306 N   0  0  0  0  0  0  0  0  0  0  0  0
  -12.3523  -40.1010  -20.9516 C   0  0  0  0  0  0  0  0  0  0  0  0
  -12.2007  -41.2807  -20.4067 N   0  0  0  0  0  0  0  0  0  0  0  0
  -13.0920  -42.0902  -21.0575 C   0  0  0  0  0  0  0  0  0  0  0  0
  -13.8016  -41.3979  -22.0263 C   0  0  0  0  0  0  0  0  0  0  0  0
  -14.7487  -41.9590  -23.0459 C   0  0  0  0  0  0  0  0  0  0  0  0
  -15.9452  -41.1454  -23.2219 N   0  0  0  0  0  0  0  0  0  0  0  0
  -16.9074  -41.1231  -22.1345 C   0  0  0  0  0  0  0  0  0  0  0  0
  -16.1742  -40.5882  -24.4797 C   0  0  0  0  0  0  0  0  0  0  0  0
  -15.3217  -40.6690  -25.3709 O   0  0  0  0  0  0  0  0  0  0  0  0
  -17.4969  -39.7916  -24.7117 C   0  0  2  0  0  0  0  0  0  0  0  0
  -17.9942  -40.0587  -26.0872 C   0  0  0  0  0  0  0  0  0  0  0  0
  -17.6094  -39.0741  -26.9022 C   0  0  0  0  0  0  0  0  0  0  0  0
  -16.9097  -38.0120  -26.1484 C   0  0  0  0  0  0  0  0  0  0  0  0
  -17.1891  -38.3294  -24.7329 N   0  0  0  0  0  0  0  0  0  0  0  0
  1  2  1  0
  2  3  1  0
  3  4  1  0
  4  5  2  0
  5  6  1  0
  6  7  2  0
  7  8  1  0
  8  9  1  0
  9 10  1  0
  9 11  1  0
 11 12  2  0
 13 11  1  6
 13 14  1  0
 14 15  2  0
 15 16  1  0
 16 17  1  0
  7  3  1  0
 17 13  1  0
M  END
>  <csv_name>  (49) 
RdRp_knitwork_primer_grip_n_pocket_impure_split4000_batch003.csv

>  <exports>  (49) 
['/opt/xchem-fragalysis-2/maxwin/BulkDock/OUTPUTS/RdRp_knitwork_primer_grip_n_pocket_impure_split4000_batch003_211035.sdf']

>  <original SMILES>  (49) 
CCn1cncc1CN(C)C(=O)[C@@H]1C=CCN1

>  <tags>  (49) 
['Fragmenstein placed']

>  <alias>  (49) 
None

>  <fragmenstein_outcome>  (49) 
['acceptable']

>  <HIPPO Compound ID>  (49) 
11905

>  <name>  (49) 
DXXDRBQJWQVNAY-NSHDSACASA-N

>  <fragmenstein_mode>  (49) 
['expansion']

>  <ref_pdb>  (49) 
d0866a

>  <HIPPO Pose ID>  (49) 
43655

>  <distance_score>  (49) 
0.918813

>  <original ID>  (49) 
DXXDRBQJWQVNAY-NSHDSACASA-N

>  <ref_mols>  (49) 
d0866a,z0875c

>  <SLURM_JOB_NAME>  (49) 
BulkDock.place:Flavi_NS5_RdRp:RdRp_knitwork_primer_grip_n_pocket_impure_split4000_batch003

>  <fragmenstein_runtime>  (49) 
[6.8599114418029785]

>  <fragmenstein_error>  (49) 
['']

>  <energy_score>  (49) 
-67.816144

>  <inchikey>  (49) 
DXXDRBQJWQVNAY-NSHDSACASA-N

>  <SLURM_JOB_ID>  (49) 
211035

>  <scratch_subdir>  (49) 
['/opt/xchem-fragalysis-2/maxwin/BulkDock/SCRATCH/211035/C11905-P68']

$$$$
44038
     RDKit          3D

 15 16  0  0  0  0  0  0  0  0999 V2000
  -17.4038  -40.9024  -22.5001 O   0  0  0  0  0  0  0  0  0  0  0  0
  -16.4515  -41.4308  -23.4550 S   0  0  0  0  0  0  0  0  0  0  0  0
  -16.3309  -42.8599  -23.6672 O   0  0  0  0  0  0  0  0  0  0  0  0
  -14.9083  -40.9316  -22.7790 C   0  0  0  0  0  0  0  0  0  0  0  0
  -14.2087  -41.6912  -21.8159 C   0  0  0  0  0  0  0  0  0  0  0  0
  -13.1499  -40.8991  -21.4433 C   0  0  0  0  0  0  0  0  0  0  0  0
  -13.2461  -39.7624  -22.1870 N   0  0  0  0  0  0  0  0  0  0  0  0
  -14.3000  -39.7484  -23.0216 N   0  0  0  0  0  0  0  0  0  0  0  0
  -16.7052  -40.7102  -24.9482 N   0  0  0  0  0  0  0  0  0  0  0  0
  -15.9315  -41.2385  -26.0854 C   0  0  0  0  0  0  0  0  0  0  0  0
  -15.5699  -40.0239  -26.9146 C   0  0  0  0  0  0  0  0  0  0  0  0
  -16.6433  -39.0094  -26.5833 C   0  0  0  0  0  0  0  0  0  0  0  0
  -16.8351  -39.2349  -25.0814 C   0  0  1  0  0  0  0  0  0  0  0  0
  -18.1617  -38.7032  -24.5592 C   0  0  0  0  0  0  0  0  0  0  0  0
  -19.5753  -39.5487  -25.2431 Cl  0  0  0  0  0  0  0  0  0  0  0  0
  1  2  2  0
  2  3  2  0
  2  4  1  0
  4  5  1  0
  5  6  2  0
  6  7  1  0
  7  8  1  0
  2  9  1  0
  9 10  1  0
 10 11  1  0
 11 12  1  0
 12 13  1  0
 13 14  1  6
 14 15  1  0
  8  4  2  0
 13  9  1  0
M  END
>  <csv_name>  (50) 
RdRp_knitwork_primer_grip_n_pocket_impure_split4000_batch005.csv

>  <exports>  (50) 
['/opt/xchem-fragalysis-2/maxwin/BulkDock/OUTPUTS/RdRp_knitwork_primer_grip_n_pocket_impure_split4000_batch005_211037.sdf']

>  <original SMILES>  (50) 
O=S(=O)(c1cc[nH]n1)N1CCC[C@H]1CCl

>  <tags>  (50) 
['Fragmenstein placed']

>  <alias>  (50) 
None

>  <fragmenstein_outcome>  (50) 
['acceptable']

>  <HIPPO Compound ID>  (50) 
13086

>  <name>  (50) 
OPOSJVRARWHRPJ-ZETCQYMHSA-N

>  <fragmenstein_mode>  (50) 
['expansion']

>  <ref_pdb>  (50) 
d0160a

>  <HIPPO Pose ID>  (50) 
44038

>  <distance_score>  (50) 
0.933793

>  <original ID>  (50) 
OPOSJVRARWHRPJ-ZETCQYMHSA-N

>  <ref_mols>  (50) 
d0160a,d0866a

>  <SLURM_JOB_NAME>  (50) 
BulkDock.place:Flavi_NS5_RdRp:RdRp_knitwork_primer_grip_n_pocket_impure_split4000_batch005

>  <fragmenstein_runtime>  (50) 
[2.543555974960327]

>  <fragmenstein_error>  (50) 
['']

>  <energy_score>  (50) 
-43.679236

>  <inchikey>  (50) 
OPOSJVRARWHRPJ-ZETCQYMHSA-N

>  <SLURM_JOB_ID>  (50) 
211037

>  <scratch_subdir>  (50) 
['/opt/xchem-fragalysis-2/maxwin/BulkDock/SCRATCH/211037/C13086-P12']

$$$$
44040
     RDKit          3D

 15 16  0  0  0  0  0  0  0  0999 V2000
  -17.3622  -40.8523  -22.5652 O   0  0  0  0  0  0  0  0  0  0  0  0
  -16.3712  -41.3724  -23.4840 S   0  0  0  0  0  0  0  0  0  0  0  0
  -16.2410  -42.7993  -23.7055 O   0  0  0  0  0  0  0  0  0  0  0  0
  -14.8550  -40.8849  -22.7413 C   0  0  0  0  0  0  0  0  0  0  0  0
  -14.1626  -41.6779  -21.8009 C   0  0  0  0  0  0  0  0  0  0  0  0
  -13.1048  -40.9001  -21.3967 C   0  0  0  0  0  0  0  0  0  0  0  0
  -13.1993  -39.7361  -22.0977 N   0  0  0  0  0  0  0  0  0  0  0  0
  -14.2471  -39.6929  -22.9375 N   0  0  0  0  0  0  0  0  0  0  0  0
  -16.5366  -40.6257  -24.9766 N   0  0  0  0  0  0  0  0  0  0  0  0
  -15.6058  -41.0697  -26.0338 C   0  0  0  0  0  0  0  0  0  0  0  0
  -15.3512  -39.8437  -26.8933 C   0  0  0  0  0  0  0  0  0  0  0  0
  -16.5077  -38.9151  -26.5931 C   0  0  0  0  0  0  0  0  0  0  0  0
  -16.7396  -39.1621  -25.0997 C   0  0  1  0  0  0  0  0  0  0  0  0
  -18.1137  -38.7042  -24.6326 C   0  0  0  0  0  0  0  0  0  0  0  0
  -19.4521  -39.6000  -25.3996 Cl  0  0  0  0  0  0  0  0  0  0  0  0
  1  2  2  0
  2  3  2  0
  2  4  1  0
  4  5  1  0
  5  6  2  0
  6  7  1  0
  7  8  1  0
  2  9  1  0
  9 10  1  0
 10 11  1  0
 11 12  1  0
 12 13  1  0
 13 14  1  6
 14 15  1  0
  8  4  2  0
 13  9  1  0
M  END
>  <csv_name>  (51) 
RdRp_knitwork_primer_grip_n_pocket_impure_split4000_batch005.csv

>  <exports>  (51) 
['/opt/xchem-fragalysis-2/maxwin/BulkDock/OUTPUTS/RdRp_knitwork_primer_grip_n_pocket_impure_split4000_batch005_211037.sdf']

>  <original SMILES>  (51) 
O=S(=O)(c1cc[nH]n1)N1CCC[C@H]1CCl

>  <tags>  (51) 
['Fragmenstein placed']

>  <alias>  (51) 
None

>  <fragmenstein_outcome>  (51) 
['acceptable']

>  <HIPPO Compound ID>  (51) 
13086

>  <name>  (51) 
OPOSJVRARWHRPJ-ZETCQYMHSA-N

>  <fragmenstein_mode>  (51) 
['expansion']

>  <ref_pdb>  (51) 
d0866a

>  <HIPPO Pose ID>  (51) 
44040

>  <distance_score>  (51) 
0.936695

>  <original ID>  (51) 
OPOSJVRARWHRPJ-ZETCQYMHSA-N

>  <ref_mols>  (51) 
d0160a,d0866a

>  <SLURM_JOB_NAME>  (51) 
BulkDock.place:Flavi_NS5_RdRp:RdRp_knitwork_primer_grip_n_pocket_impure_split4000_batch005

>  <fragmenstein_runtime>  (51) 
[2.7865326404571533]

>  <fragmenstein_error>  (51) 
['']

>  <energy_score>  (51) 
-43.730195

>  <inchikey>  (51) 
OPOSJVRARWHRPJ-ZETCQYMHSA-N

>  <SLURM_JOB_ID>  (51) 
211037

>  <scratch_subdir>  (51) 
['/opt/xchem-fragalysis-2/maxwin/BulkDock/SCRATCH/211037/C13086-P68']

$$$$
44044
     RDKit          3D

 20 21  0  0  0  0  0  0  0  0999 V2000
  -23.3051  -44.9966  -18.4276 C   0  0  0  0  0  0  0  0  0  0  0  0
  -22.0601  -45.5913  -17.7669 C   0  0  1  0  0  0  0  0  0  0  0  0
  -21.1822  -44.5731  -17.1802 N   0  0  0  0  0  0  0  0  0  0  0  0
  -20.4536  -43.4596  -18.1921 S   0  0  0  0  0  0  0  0  0  0  0  0
  -19.4457  -42.7784  -17.4170 O   0  0  0  0  0  0  0  0  0  0  0  0
  -21.4855  -42.7185  -18.8823 O   0  0  0  0  0  0  0  0  0  0  0  0
  -19.5895  -44.2999  -19.4270 C   0  0  0  0  0  0  0  0  0  0  0  0
  -19.6630  -44.0497  -20.7808 C   0  0  0  0  0  0  0  0  0  0  0  0
  -18.9140  -44.9988  -21.4175 N   0  0  0  0  0  0  0  0  0  0  0  0
  -18.3841  -45.8851  -20.5024 C   0  0  0  0  0  0  0  0  0  0  0  0
  -17.6792  -47.0738  -20.8871 C   0  0  0  0  0  0  0  0  0  0  0  0
  -16.7618  -47.6559  -20.3262 O   0  0  0  0  0  0  0  0  0  0  0  0
  -18.2357  -47.5622  -22.0099 O   0  0  0  0  0  0  0  0  0  0  0  0
  -18.7332  -45.4213  -19.2432 C   0  0  0  0  0  0  0  0  0  0  0  0
  -22.5136  -46.5740  -16.7322 C   0  0  0  0  0  0  0  0  0  0  0  0
  -23.2492  -46.1490  -15.6285 C   0  0  0  0  0  0  0  0  0  0  0  0
  -23.7504  -47.0842  -14.7578 C   0  0  0  0  0  0  0  0  0  0  0  0
  -23.4794  -48.4129  -15.0061 C   0  0  0  0  0  0  0  0  0  0  0  0
  -22.7924  -48.8686  -16.0689 N   0  0  0  0  0  0  0  0  0  0  0  0
  -22.3091  -47.9384  -16.9047 C   0  0  0  0  0  0  0  0  0  0  0  0
  2  1  1  1
  2  3  1  0
  3  4  1  0
  4  5  2  0
  4  6  2  0
  4  7  1  0
  7  8  2  0
  8  9  1  0
  9 10  1  0
 10 11  1  0
 11 12  2  0
 11 13  1  0
 10 14  2  0
  2 15  1  0
 15 16  2  0
 16 17  1  0
 17 18  2  0
 18 19  1  0
 19 20  2  0
 14  7  1  0
 20 15  1  0
M  END
>  <csv_name>  (52) 
RdRp_knitwork_primer_grip_n_pocket_impure_split4000_batch004.csv

>  <exports>  (52) 
['/opt/xchem-fragalysis-2/maxwin/BulkDock/OUTPUTS/RdRp_knitwork_primer_grip_n_pocket_impure_split4000_batch004_211036.sdf']

>  <original SMILES>  (52) 
C[C@@H](NS(=O)(=O)c1c[nH]c(C(=O)O)c1)c1cccnc1

>  <tags>  (52) 
['Fragmenstein placed']

>  <alias>  (52) 
None

>  <fragmenstein_outcome>  (52) 
['acceptable']

>  <HIPPO Compound ID>  (52) 
10787

>  <name>  (52) 
CLNJFRJMGBHTHL-MRVPVSSYSA-N

>  <fragmenstein_mode>  (52) 
['expansion']

>  <ref_pdb>  (52) 
d0472a

>  <HIPPO Pose ID>  (52) 
44044

>  <distance_score>  (52) 
0.862546

>  <original ID>  (52) 
CLNJFRJMGBHTHL-MRVPVSSYSA-N

>  <ref_mols>  (52) 
d0160a,d0264a,d0472a

>  <SLURM_JOB_NAME>  (52) 
BulkDock.place:Flavi_NS5_RdRp:RdRp_knitwork_primer_grip_n_pocket_impure_split4000_batch004

>  <fragmenstein_runtime>  (52) 
[7.229995012283325]

>  <fragmenstein_error>  (52) 
['']

>  <energy_score>  (52) 
-46.001552

>  <inchikey>  (52) 
CLNJFRJMGBHTHL-MRVPVSSYSA-N

>  <SLURM_JOB_ID>  (52) 
211036

>  <scratch_subdir>  (52) 
['/opt/xchem-fragalysis-2/maxwin/BulkDock/SCRATCH/211036/C10787-P42']

$$$$
44055
     RDKit          3D

 21 22  0  0  0  0  0  0  0  0999 V2000
  -12.9808  -39.3915  -21.4643 C   0  0  0  0  0  0  0  0  0  0  0  0
  -13.4274  -40.8490  -21.5292 C   0  0  0  0  0  0  0  0  0  0  0  0
  -14.2934  -41.3524  -22.6146 N   0  0  0  0  0  0  0  0  0  0  0  0
  -14.5730  -40.4908  -23.6940 C   0  0  0  0  0  0  0  0  0  0  0  0
  -14.0763  -39.3639  -23.7453 O   0  0  0  0  0  0  0  0  0  0  0  0
  -15.4992  -40.8237  -24.7856 C   0  0  0  0  0  0  0  0  0  0  0  0
  -16.0959  -41.9834  -25.2421 C   0  0  0  0  0  0  0  0  0  0  0  0
  -16.9243  -41.6743  -26.2889 N   0  0  0  0  0  0  0  0  0  0  0  0
  -17.0215  -40.3131  -26.4088 C   0  0  0  0  0  0  0  0  0  0  0  0
  -18.0614  -39.7184  -27.1810 C   0  0  0  0  0  0  0  0  0  0  0  0
  -18.8369  -40.3592  -27.8703 O   0  0  0  0  0  0  0  0  0  0  0  0
  -18.1711  -38.3793  -27.0014 O   0  0  0  0  0  0  0  0  0  0  0  0
  -16.0082  -39.7884  -25.6415 C   0  0  0  0  0  0  0  0  0  0  0  0
  -14.8255  -42.7488  -22.5133 C   0  0  1  0  0  0  0  0  0  0  0  0
  -14.1212  -43.7193  -23.4727 C   0  0  0  0  0  0  0  0  0  0  0  0
  -14.8401  -43.4310  -21.1516 C   0  0  0  0  0  0  0  0  0  0  0  0
  -13.6857  -43.6095  -20.3895 C   0  0  0  0  0  0  0  0  0  0  0  0
  -13.7330  -44.2331  -19.1576 C   0  0  0  0  0  0  0  0  0  0  0  0
  -14.9275  -44.7884  -18.7587 C   0  0  0  0  0  0  0  0  0  0  0  0
  -16.0589  -44.7214  -19.4869 N   0  0  0  0  0  0  0  0  0  0  0  0
  -15.9926  -44.0329  -20.6543 C   0  0  0  0  0  0  0  0  0  0  0  0
  1  2  1  0
  2  3  1  0
  3  4  1  0
  4  5  2  0
  4  6  1  0
  6  7  2  0
  7  8  1  0
  8  9  1  0
  9 10  1  0
 10 11  2  0
 10 12  1  0
  9 13  2  0
  3 14  1  0
 14 15  1  6
 14 16  1  0
 16 17  2  0
 17 18  1  0
 18 19  2  0
 19 20  1  0
 20 21  2  0
 13  6  1  0
 21 16  1  0
M  END
>  <csv_name>  (53) 
RdRp_knitwork_primer_grip_n_pocket_impure_split4000_batch004.csv

>  <exports>  (53) 
['/opt/xchem-fragalysis-2/maxwin/BulkDock/OUTPUTS/RdRp_knitwork_primer_grip_n_pocket_impure_split4000_batch004_211036.sdf']

>  <original SMILES>  (53) 
CCN(C(=O)c1c[nH]c(C(=O)O)c1)[C@@H](C)c1cccnc1

>  <tags>  (53) 
['Fragmenstein placed']

>  <alias>  (53) 
None

>  <fragmenstein_outcome>  (53) 
['acceptable']

>  <HIPPO Compound ID>  (53) 
10844

>  <name>  (53) 
MEVDZBNGXDKJMA-JTQLQIEISA-N

>  <fragmenstein_mode>  (53) 
['expansion']

>  <ref_pdb>  (53) 
d0160a

>  <HIPPO Pose ID>  (53) 
44055

>  <distance_score>  (53) 
0.919488

>  <original ID>  (53) 
MEVDZBNGXDKJMA-JTQLQIEISA-N

>  <ref_mols>  (53) 
d0160a,d0472a

>  <SLURM_JOB_NAME>  (53) 
BulkDock.place:Flavi_NS5_RdRp:RdRp_knitwork_primer_grip_n_pocket_impure_split4000_batch004

>  <fragmenstein_runtime>  (53) 
[5.676752090454102]

>  <fragmenstein_error>  (53) 
['']

>  <energy_score>  (53) 
-64.035713

>  <inchikey>  (53) 
MEVDZBNGXDKJMA-JTQLQIEISA-N

>  <SLURM_JOB_ID>  (53) 
211036

>  <scratch_subdir>  (53) 
['/opt/xchem-fragalysis-2/maxwin/BulkDock/SCRATCH/211036/C10844-P12']

$$$$
44208
     RDKit          3D

 15 16  0  0  0  0  0  0  0  0999 V2000
  -16.9762  -41.1200  -22.2759 C   0  0  0  0  0  0  0  0  0  0  0  0
  -16.0341  -41.1779  -23.3794 N   0  0  0  0  0  0  0  0  0  0  0  0
  -14.8205  -41.9632  -23.1847 C   0  0  0  0  0  0  0  0  0  0  0  0
  -13.8858  -41.3309  -22.1971 C   0  0  0  0  0  0  0  0  0  0  0  0
  -13.1123  -41.9332  -21.2188 C   0  0  0  0  0  0  0  0  0  0  0  0
  -12.2574  -41.0364  -20.6322 N   0  0  0  0  0  0  0  0  0  0  0  0
  -12.5119  -39.8903  -21.2155 C   0  0  0  0  0  0  0  0  0  0  0  0
  -13.4942  -40.0115  -22.1600 N   0  0  0  0  0  0  0  0  0  0  0  0
  -13.9955  -38.9205  -22.9580 C   0  0  0  0  0  0  0  0  0  0  0  0
  -16.2981  -40.6484  -24.6555 C   0  0  0  0  0  0  0  0  0  0  0  0
  -15.4848  -40.7953  -25.5769 O   0  0  0  0  0  0  0  0  0  0  0  0
  -17.6495  -39.8505  -24.8499 C   0  0  2  0  0  0  0  0  0  0  0  0
  -18.0495  -39.4565  -26.2878 C   0  0  0  0  0  0  0  0  0  0  0  0
  -17.2395  -38.1798  -26.0257 C   0  0  0  0  0  0  0  0  0  0  0  0
  -17.4992  -38.3736  -24.5733 N   0  0  0  0  0  0  0  0  0  0  0  0
  1  2  1  0
  2  3  1  0
  3  4  1  0
  4  5  2  0
  5  6  1  0
  6  7  2  0
  7  8  1  0
  8  9  1  0
  2 10  1  0
 10 11  2  0
 12 10  1  6
 12 13  1  0
 13 14  1  0
 14 15  1  0
  8  4  1  0
 15 12  1  0
M  END
>  <csv_name>  (54) 
RdRp_knitwork_primer_grip_n_pocket_impure_split4000_batch003.csv

>  <exports>  (54) 
['/opt/xchem-fragalysis-2/maxwin/BulkDock/OUTPUTS/RdRp_knitwork_primer_grip_n_pocket_impure_split4000_batch003_211035.sdf']

>  <original SMILES>  (54) 
CN(Cc1cncn1C)C(=O)[C@@H]1CCN1

>  <tags>  (54) 
['Fragmenstein placed']

>  <alias>  (54) 
None

>  <fragmenstein_outcome>  (54) 
['acceptable']

>  <HIPPO Compound ID>  (54) 
14131

>  <name>  (54) 
GNANYFCMXGSEQF-VIFPVBQESA-N

>  <fragmenstein_mode>  (54) 
['expansion']

>  <ref_pdb>  (54) 
d0866a

>  <HIPPO Pose ID>  (54) 
44208

>  <distance_score>  (54) 
0.986725

>  <original ID>  (54) 
GNANYFCMXGSEQF-VIFPVBQESA-N

>  <ref_mols>  (54) 
d0866a,z0875c

>  <SLURM_JOB_NAME>  (54) 
BulkDock.place:Flavi_NS5_RdRp:RdRp_knitwork_primer_grip_n_pocket_impure_split4000_batch003

>  <fragmenstein_runtime>  (54) 
[3.791062593460083]

>  <fragmenstein_error>  (54) 
['']

>  <energy_score>  (54) 
-138.427197

>  <inchikey>  (54) 
GNANYFCMXGSEQF-VIFPVBQESA-N

>  <SLURM_JOB_ID>  (54) 
211035

>  <scratch_subdir>  (54) 
['/opt/xchem-fragalysis-2/maxwin/BulkDock/SCRATCH/211035/C14131-P68']

$$$$
45239
     RDKit          3D

 15 16  0  0  0  0  0  0  0  0999 V2000
  -14.3069  -34.8317  -20.8057 C   0  0  0  0  0  0  0  0  0  0  0  0
  -13.4973  -35.8801  -21.4621 C   0  0  0  0  0  0  0  0  0  0  0  0
  -12.1402  -36.0090  -21.6410 C   0  0  0  0  0  0  0  0  0  0  0  0
  -11.8379  -37.1818  -22.2765 N   0  0  0  0  0  0  0  0  0  0  0  0
  -12.9884  -37.8061  -22.4367 C   0  0  0  0  0  0  0  0  0  0  0  0
  -13.1898  -39.1821  -22.9816 C   0  0  0  0  0  0  0  0  0  0  0  0
  -13.5350  -40.1777  -21.9513 N   0  0  0  0  0  0  0  0  0  0  0  0
  -12.3515  -40.9594  -21.5422 C   0  0  1  0  0  0  0  0  0  0  0  0
  -11.2627  -40.1028  -20.8932 C   0  0  0  0  0  0  0  0  0  0  0  0
  -12.7287  -42.0719  -20.6179 C   0  0  0  0  0  0  0  0  0  0  0  0
  -13.1134  -41.9505  -19.3637 N   0  0  0  0  0  0  0  0  0  0  0  0
  -13.2153  -43.2292  -18.8788 C   0  0  0  0  0  0  0  0  0  0  0  0
  -12.9390  -44.1441  -19.8640 C   0  0  0  0  0  0  0  0  0  0  0  0
  -12.6321  -43.3992  -20.9732 N   0  0  0  0  0  0  0  0  0  0  0  0
  -14.0290  -37.0228  -22.0002 N   0  0  0  0  0  0  0  0  0  0  0  0
  1  2  1  0
  2  3  2  0
  3  4  1  0
  4  5  2  0
  5  6  1  0
  6  7  1  0
  7  8  1  0
  8  9  1  1
  8 10  1  0
 10 11  2  0
 11 12  1  0
 12 13  2  0
 13 14  1  0
  5 15  1  0
 15  2  1  0
 14 10  1  0
M  END
>  <csv_name>  (55) 
RdRp_knitwork_primer_grip_n_pocket_impure_split4000_batch002.csv

>  <exports>  (55) 
['/opt/xchem-fragalysis-2/maxwin/BulkDock/OUTPUTS/RdRp_knitwork_primer_grip_n_pocket_impure_split4000_batch002_211034.sdf']

>  <original SMILES>  (55) 
Cc1cnc(CN[C@@H](C)c2ncc[nH]2)[nH]1

>  <tags>  (55) 
['Fragmenstein placed']

>  <alias>  (55) 
None

>  <fragmenstein_outcome>  (55) 
['acceptable']

>  <HIPPO Compound ID>  (55) 
19915

>  <name>  (55) 
VSNBBDNGMDIROM-QMMMGPOBSA-N

>  <fragmenstein_mode>  (55) 
['expansion']

>  <ref_pdb>  (55) 
z0103a

>  <HIPPO Pose ID>  (55) 
45239

>  <distance_score>  (55) 
0.946852

>  <original ID>  (55) 
VSNBBDNGMDIROM-QMMMGPOBSA-N

>  <ref_mols>  (55) 
z0103a,z0875c

>  <SLURM_JOB_NAME>  (55) 
BulkDock.place:Flavi_NS5_RdRp:RdRp_knitwork_primer_grip_n_pocket_impure_split4000_batch002

>  <fragmenstein_runtime>  (55) 
[3.302950620651245]

>  <fragmenstein_error>  (55) 
['']

>  <energy_score>  (55) 
-33.773612

>  <inchikey>  (55) 
VSNBBDNGMDIROM-QMMMGPOBSA-N

>  <SLURM_JOB_ID>  (55) 
211034

>  <scratch_subdir>  (55) 
['/opt/xchem-fragalysis-2/maxwin/BulkDock/SCRATCH/211034/C19915-P84']

$$$$
45355
     RDKit          3D

 18 19  0  0  0  0  0  0  0  0999 V2000
  -19.6081  -40.8027  -26.5733 C   0  0  0  0  0  0  0  0  0  0  0  0
  -18.8740  -40.3098  -25.3095 C   0  0  0  0  0  0  0  0  0  0  0  0
  -19.0646  -38.7721  -25.3119 C   0  0  0  0  0  0  0  0  0  0  0  0
  -19.5947  -40.9037  -24.0464 C   0  0  0  0  0  0  0  0  0  0  0  0
  -19.6584  -42.4538  -23.9098 C   0  0  0  0  0  0  0  0  0  0  0  0
  -18.3779  -43.1688  -23.9327 N   0  0  0  0  0  0  0  0  0  0  0  0
  -17.7336  -43.2850  -22.6254 C   0  0  0  0  0  0  0  0  0  0  0  0
  -17.6929  -44.7018  -22.1290 C   0  0  0  0  0  0  0  0  0  0  0  0
  -18.3133  -45.8598  -22.5587 C   0  0  0  0  0  0  0  0  0  0  0  0
  -17.9608  -46.9075  -21.6732 C   0  0  0  0  0  0  0  0  0  0  0  0
  -17.0890  -46.3844  -20.7486 C   0  0  0  0  0  0  0  0  0  0  0  0
  -16.9186  -45.0558  -21.0434 N   0  0  0  0  0  0  0  0  0  0  0  0
  -17.4676  -40.7608  -25.2205 N   0  0  0  0  0  0  0  0  0  0  0  0
  -16.5778  -39.9926  -24.3255 C   0  0  0  0  0  0  0  0  0  0  0  0
  -15.8448  -38.8068  -24.9884 C   0  0  0  0  0  0  0  0  0  0  0  0
  -15.2159  -39.1661  -26.2557 N   0  0  0  0  0  0  0  0  0  0  0  0
  -16.1323  -39.8780  -27.1489 C   0  0  0  0  0  0  0  0  0  0  0  0
  -16.7376  -41.0984  -26.4487 C   0  0  0  0  0  0  0  0  0  0  0  0
  1  2  1  0
  2  3  1  0
  2  4  1  0
  4  5  1  0
  5  6  1  0
  6  7  1  0
  7  8  1  0
  8  9  2  0
  9 10  1  0
 10 11  2  0
 11 12  1  0
  2 13  1  0
 13 14  1  0
 14 15  1  0
 15 16  1  0
 16 17  1  0
 17 18  1  0
 12  8  1  0
 18 13  1  0
M  END
>  <csv_name>  (56) 
RdRp_knitwork_primer_grip_n_pocket_impure_split4000_batch001.csv

>  <exports>  (56) 
['/opt/xchem-fragalysis-2/maxwin/BulkDock/OUTPUTS/RdRp_knitwork_primer_grip_n_pocket_impure_split4000_batch001_211033.sdf']

>  <original SMILES>  (56) 
CC(C)(CCNCc1ccc[nH]1)N1CCNCC1

>  <tags>  (56) 
['Fragmenstein placed']

>  <alias>  (56) 
None

>  <fragmenstein_outcome>  (56) 
['acceptable']

>  <HIPPO Compound ID>  (56) 
14989

>  <name>  (56) 
RRZHRALLRAPVBH-UHFFFAOYSA-N

>  <fragmenstein_mode>  (56) 
['expansion']

>  <ref_pdb>  (56) 
d0472a

>  <HIPPO Pose ID>  (56) 
45355

>  <distance_score>  (56) 
0.996791

>  <original ID>  (56) 
RRZHRALLRAPVBH-UHFFFAOYSA-N

>  <ref_mols>  (56) 
d0472a,d0851a

>  <SLURM_JOB_NAME>  (56) 
BulkDock.place:Flavi_NS5_RdRp:RdRp_knitwork_primer_grip_n_pocket_impure_split4000_batch001

>  <fragmenstein_runtime>  (56) 
[49.124260663986206]

>  <fragmenstein_error>  (56) 
['']

>  <energy_score>  (56) 
-35.343534

>  <inchikey>  (56) 
RRZHRALLRAPVBH-UHFFFAOYSA-N

>  <SLURM_JOB_ID>  (56) 
211033

>  <scratch_subdir>  (56) 
['/opt/xchem-fragalysis-2/maxwin/BulkDock/SCRATCH/211033/C14989-P42']

$$$$
45393
     RDKit          3D

 13 14  0  0  0  0  0  0  0  0999 V2000
  -14.9600  -41.5714  -23.7572 C   0  0  0  0  0  0  0  0  0  0  0  0
  -15.2800  -42.4790  -22.7513 C   0  0  0  0  0  0  0  0  0  0  0  0
  -16.1816  -43.5240  -22.9869 C   0  0  0  0  0  0  0  0  0  0  0  0
  -16.5452  -44.4471  -21.9958 N   0  0  0  0  0  0  0  0  0  0  0  0
  -17.5178  -45.5010  -22.3107 C   0  0  0  0  0  0  0  0  0  0  0  0
  -17.8779  -46.4289  -21.1533 C   0  0  0  0  0  0  0  0  0  0  0  0
  -18.4294  -45.6789  -19.9529 C   0  0  0  0  0  0  0  0  0  0  0  0
  -17.3850  -45.3390  -19.0474 O   0  0  0  0  0  0  0  0  0  0  0  0
  -16.5270  -44.2950  -19.5100 C   0  0  0  0  0  0  0  0  0  0  0  0
  -15.7254  -44.6455  -20.7766 C   0  0  0  0  0  0  0  0  0  0  0  0
  -16.7228  -43.5462  -24.2846 C   0  0  0  0  0  0  0  0  0  0  0  0
  -16.3478  -42.5981  -25.2368 C   0  0  0  0  0  0  0  0  0  0  0  0
  -15.4785  -41.6056  -24.9926 N   0  0  0  0  0  0  0  0  0  0  0  0
  1  2  2  0
  2  3  1  0
  3  4  1  0
  4  5  1  0
  5  6  1  0
  6  7  1  0
  7  8  1  0
  8  9  1  0
  9 10  1  0
  3 11  2  0
 11 12  1  0
 12 13  2  0
 13  1  1  0
 10  4  1  0
M  END
>  <csv_name>  (57) 
RdRp_knitwork_primer_grip_n_pocket_impure_split4000_batch002.csv

>  <exports>  (57) 
['/opt/xchem-fragalysis-2/maxwin/BulkDock/OUTPUTS/RdRp_knitwork_primer_grip_n_pocket_impure_split4000_batch002_211034.sdf']

>  <original SMILES>  (57) 
c1cc(N2CCCOCC2)ccn1

>  <tags>  (57) 
['Fragmenstein placed']

>  <alias>  (57) 
None

>  <fragmenstein_outcome>  (57) 
['acceptable']

>  <HIPPO Compound ID>  (57) 
14910

>  <name>  (57) 
RBCYBRWRXNYUSR-UHFFFAOYSA-N

>  <fragmenstein_mode>  (57) 
['expansion']

>  <ref_pdb>  (57) 
d0191a

>  <HIPPO Pose ID>  (57) 
45393

>  <distance_score>  (57) 
0.886544

>  <original ID>  (57) 
RBCYBRWRXNYUSR-UHFFFAOYSA-N

>  <ref_mols>  (57) 
d0191a,d0254a

>  <SLURM_JOB_NAME>  (57) 
BulkDock.place:Flavi_NS5_RdRp:RdRp_knitwork_primer_grip_n_pocket_impure_split4000_batch002

>  <fragmenstein_runtime>  (57) 
[2.587233066558838]

>  <fragmenstein_error>  (57) 
['']

>  <energy_score>  (57) 
-27.21029

>  <inchikey>  (57) 
RBCYBRWRXNYUSR-UHFFFAOYSA-N

>  <SLURM_JOB_ID>  (57) 
211034

>  <scratch_subdir>  (57) 
['/opt/xchem-fragalysis-2/maxwin/BulkDock/SCRATCH/211034/C14910-P19']

$$$$
45394
     RDKit          3D

 13 14  0  0  0  0  0  0  0  0999 V2000
  -14.9914  -41.6951  -23.8579 C   0  0  0  0  0  0  0  0  0  0  0  0
  -15.3136  -42.5927  -22.8415 C   0  0  0  0  0  0  0  0  0  0  0  0
  -16.3001  -43.5670  -23.0347 C   0  0  0  0  0  0  0  0  0  0  0  0
  -16.6733  -44.4755  -22.0342 N   0  0  0  0  0  0  0  0  0  0  0  0
  -17.7932  -45.3944  -22.2734 C   0  0  0  0  0  0  0  0  0  0  0  0
  -18.1618  -46.2954  -21.0959 C   0  0  0  0  0  0  0  0  0  0  0  0
  -18.4535  -45.5215  -19.8218 C   0  0  0  0  0  0  0  0  0  0  0  0
  -17.2778  -45.3604  -19.0328 O   0  0  0  0  0  0  0  0  0  0  0  0
  -16.3427  -44.4213  -19.5711 C   0  0  0  0  0  0  0  0  0  0  0  0
  -15.7484  -44.8226  -20.9327 C   0  0  0  0  0  0  0  0  0  0  0  0
  -16.9160  -43.5330  -24.2953 C   0  0  0  0  0  0  0  0  0  0  0  0
  -16.5192  -42.6124  -25.2629 C   0  0  0  0  0  0  0  0  0  0  0  0
  -15.5701  -41.6854  -25.0691 N   0  0  0  0  0  0  0  0  0  0  0  0
  1  2  2  0
  2  3  1  0
  3  4  1  0
  4  5  1  0
  5  6  1  0
  6  7  1  0
  7  8  1  0
  8  9  1  0
  9 10  1  0
  3 11  2  0
 11 12  1  0
 12 13  2  0
 13  1  1  0
 10  4  1  0
M  END
>  <csv_name>  (58) 
RdRp_knitwork_primer_grip_n_pocket_impure_split4000_batch002.csv

>  <exports>  (58) 
['/opt/xchem-fragalysis-2/maxwin/BulkDock/OUTPUTS/RdRp_knitwork_primer_grip_n_pocket_impure_split4000_batch002_211034.sdf']

>  <original SMILES>  (58) 
c1cc(N2CCCOCC2)ccn1

>  <tags>  (58) 
['Fragmenstein placed']

>  <alias>  (58) 
None

>  <fragmenstein_outcome>  (58) 
['acceptable']

>  <HIPPO Compound ID>  (58) 
14910

>  <name>  (58) 
RBCYBRWRXNYUSR-UHFFFAOYSA-N

>  <fragmenstein_mode>  (58) 
['expansion']

>  <ref_pdb>  (58) 
d0254a

>  <HIPPO Pose ID>  (58) 
45394

>  <distance_score>  (58) 
0.830006

>  <original ID>  (58) 
RBCYBRWRXNYUSR-UHFFFAOYSA-N

>  <ref_mols>  (58) 
d0191a,d0254a

>  <SLURM_JOB_NAME>  (58) 
BulkDock.place:Flavi_NS5_RdRp:RdRp_knitwork_primer_grip_n_pocket_impure_split4000_batch002

>  <fragmenstein_runtime>  (58) 
[2.976625442504883]

>  <fragmenstein_error>  (58) 
['']

>  <energy_score>  (58) 
-27.769108

>  <inchikey>  (58) 
RBCYBRWRXNYUSR-UHFFFAOYSA-N

>  <SLURM_JOB_ID>  (58) 
211034

>  <scratch_subdir>  (58) 
['/opt/xchem-fragalysis-2/maxwin/BulkDock/SCRATCH/211034/C14910-P26']

$$$$
45402
     RDKit          3D

 15 16  0  0  0  0  0  0  0  0999 V2000
  -15.9364  -45.3469  -22.5728 C   0  0  0  0  0  0  0  0  0  0  0  0
  -17.0482  -44.3035  -22.6142 C   0  0  1  0  0  0  0  0  0  0  0  0
  -18.2642  -44.8155  -23.4293 C   0  0  0  0  0  0  0  0  0  0  0  0
  -19.2622  -43.8014  -23.5435 O   0  0  0  0  0  0  0  0  0  0  0  0
  -17.5265  -44.0269  -21.1458 C   0  0  0  0  0  0  0  0  0  0  0  0
  -17.9543  -45.2774  -20.3580 C   0  0  0  0  0  0  0  0  0  0  0  0
  -18.5068  -44.9884  -18.9505 C   0  0  0  0  0  0  0  0  0  0  0  0
  -17.2489  -45.3660  -18.3428 O   0  0  0  0  0  0  0  0  0  0  0  0
  -16.8425  -46.0093  -19.5743 C   0  0  0  0  0  0  0  0  0  0  0  0
  -16.4014  -43.0895  -23.3432 C   0  0  0  0  0  0  0  0  0  0  0  0
  -16.4379  -42.9514  -24.7490 C   0  0  0  0  0  0  0  0  0  0  0  0
  -15.8324  -41.8646  -25.3664 C   0  0  0  0  0  0  0  0  0  0  0  0
  -15.1556  -40.9211  -24.6918 N   0  0  0  0  0  0  0  0  0  0  0  0
  -15.0616  -41.0878  -23.3606 C   0  0  0  0  0  0  0  0  0  0  0  0
  -15.6537  -42.1301  -22.6563 C   0  0  0  0  0  0  0  0  0  0  0  0
  2  1  1  1
  2  3  1  0
  3  4  1  0
  2  5  1  0
  5  6  1  0
  6  7  1  0
  7  8  1  0
  8  9  1  0
  2 10  1  0
 10 11  2  0
 11 12  1  0
 12 13  2  0
 13 14  1  0
 14 15  2  0
  9  6  1  0
 15 10  1  0
M  END
>  <csv_name>  (59) 
RdRp_knitwork_primer_grip_n_pocket_impure_split4000_batch002.csv

>  <exports>  (59) 
['/opt/xchem-fragalysis-2/maxwin/BulkDock/OUTPUTS/RdRp_knitwork_primer_grip_n_pocket_impure_split4000_batch002_211034.sdf']

>  <original SMILES>  (59) 
C[C@@](CO)(CC1COC1)c1ccncc1

>  <tags>  (59) 
['Fragmenstein placed']

>  <alias>  (59) 
None

>  <fragmenstein_outcome>  (59) 
['acceptable']

>  <HIPPO Compound ID>  (59) 
15051

>  <name>  (59) 
UJIFYQHXWVCMTP-LBPRGKRZSA-N

>  <fragmenstein_mode>  (59) 
['expansion']

>  <ref_pdb>  (59) 
d0191a

>  <HIPPO Pose ID>  (59) 
45402

>  <distance_score>  (59) 
0.934001

>  <original ID>  (59) 
UJIFYQHXWVCMTP-LBPRGKRZSA-N

>  <ref_mols>  (59) 
d0191a,d0254a

>  <SLURM_JOB_NAME>  (59) 
BulkDock.place:Flavi_NS5_RdRp:RdRp_knitwork_primer_grip_n_pocket_impure_split4000_batch002

>  <fragmenstein_runtime>  (59) 
[6.5230677127838135]

>  <fragmenstein_error>  (59) 
['']

>  <energy_score>  (59) 
-38.161265

>  <inchikey>  (59) 
UJIFYQHXWVCMTP-LBPRGKRZSA-N

>  <SLURM_JOB_ID>  (59) 
211034

>  <scratch_subdir>  (59) 
['/opt/xchem-fragalysis-2/maxwin/BulkDock/SCRATCH/211034/C15051-P19']

$$$$
45421
     RDKit          3D

 22 23  0  0  0  0  0  0  0  0999 V2000
  -17.1155  -41.9866  -25.6839 C   0  0  0  0  0  0  0  0  0  0  0  0
  -15.8202  -41.3822  -25.4347 N   0  0  0  0  0  0  0  0  0  0  0  0
  -14.7707  -42.2947  -25.0592 C   0  0  0  0  0  0  0  0  0  0  0  0
  -14.6694  -42.5642  -23.5849 C   0  0  0  0  0  0  0  0  0  0  0  0
  -15.6251  -43.5364  -23.1314 N   0  0  0  0  0  0  0  0  0  0  0  0
  -16.3982  -43.0790  -21.8743 C   0  0  0  0  0  0  0  0  0  0  0  0
  -17.0118  -42.0516  -22.2285 O   0  0  0  0  0  0  0  0  0  0  0  0
  -16.9770  -44.5247  -21.9799 C   0  0  0  0  0  0  0  0  0  0  0  0
  -17.5001  -44.7049  -20.5503 C   0  0  1  0  0  0  0  0  0  0  0  0
  -18.6443  -45.6947  -20.4776 C   0  0  0  0  0  0  0  0  0  0  0  0
  -19.0774  -45.8721  -19.0290 C   0  0  0  0  0  0  0  0  0  0  0  0
  -17.8857  -46.2438  -18.1564 C   0  0  0  0  0  0  0  0  0  0  0  0
  -16.7317  -45.2772  -18.3711 C   0  0  0  0  0  0  0  0  0  0  0  0
  -16.4002  -45.1832  -19.7575 O   0  0  0  0  0  0  0  0  0  0  0  0
  -15.5334  -40.0307  -25.3327 C   0  0  0  0  0  0  0  0  0  0  0  0
  -14.4504  -39.5958  -24.9440 O   0  0  0  0  0  0  0  0  0  0  0  0
  -16.5891  -39.0567  -25.5925 C   0  0  0  0  0  0  0  0  0  0  0  0
  -16.9274  -38.1900  -24.5607 C   0  0  0  0  0  0  0  0  0  0  0  0
  -17.9657  -37.3005  -24.7578 C   0  0  0  0  0  0  0  0  0  0  0  0
  -18.6314  -37.3249  -25.9721 C   0  0  0  0  0  0  0  0  0  0  0  0
  -18.3235  -38.1441  -27.0014 N   0  0  0  0  0  0  0  0  0  0  0  0
  -17.2708  -38.9782  -26.7987 C   0  0  0  0  0  0  0  0  0  0  0  0
  1  2  1  0
  2  3  1  0
  3  4  1  0
  4  5  1  0
  5  6  1  0
  6  7  2  0
  6  8  1  0
  9  8  1  6
  9 10  1  0
 10 11  1  0
 11 12  1  0
 12 13  1  0
 13 14  1  0
  2 15  1  0
 15 16  2  0
 15 17  1  0
 17 18  2  0
 18 19  1  0
 19 20  2  0
 20 21  1  0
 21 22  2  0
 14  9  1  0
 22 17  1  0
M  END
>  <csv_name>  (60) 
RdRp_knitwork_primer_grip_n_pocket_impure_split4000_batch002.csv

>  <exports>  (60) 
['/opt/xchem-fragalysis-2/maxwin/BulkDock/OUTPUTS/RdRp_knitwork_primer_grip_n_pocket_impure_split4000_batch002_211034.sdf']

>  <original SMILES>  (60) 
CN(CCNC(=O)C[C@H]1CCCCO1)C(=O)c1cccnc1

>  <tags>  (60) 
['Fragmenstein placed']

>  <alias>  (60) 
None

>  <fragmenstein_outcome>  (60) 
['acceptable']

>  <HIPPO Compound ID>  (60) 
15070

>  <name>  (60) 
RGSIWFCRLMCKRU-CQSZACIVSA-N

>  <fragmenstein_mode>  (60) 
['expansion']

>  <ref_pdb>  (60) 
d0191a

>  <HIPPO Pose ID>  (60) 
45421

>  <distance_score>  (60) 
0.968892

>  <original ID>  (60) 
RGSIWFCRLMCKRU-CQSZACIVSA-N

>  <ref_mols>  (60) 
d0191a,d0254a

>  <SLURM_JOB_NAME>  (60) 
BulkDock.place:Flavi_NS5_RdRp:RdRp_knitwork_primer_grip_n_pocket_impure_split4000_batch002

>  <fragmenstein_runtime>  (60) 
[8.673079252243042]

>  <fragmenstein_error>  (60) 
['']

>  <energy_score>  (60) 
-7.549799

>  <inchikey>  (60) 
RGSIWFCRLMCKRU-CQSZACIVSA-N

>  <SLURM_JOB_ID>  (60) 
211034

>  <scratch_subdir>  (60) 
['/opt/xchem-fragalysis-2/maxwin/BulkDock/SCRATCH/211034/C15070-P19']

$$$$
45423
     RDKit          3D

 22 23  0  0  0  0  0  0  0  0999 V2000
  -16.7113  -41.7345  -26.3941 C   0  0  0  0  0  0  0  0  0  0  0  0
  -15.7299  -41.1304  -25.5211 N   0  0  0  0  0  0  0  0  0  0  0  0
  -14.6965  -42.0321  -25.0880 C   0  0  0  0  0  0  0  0  0  0  0  0
  -14.7134  -42.4008  -23.6271 C   0  0  0  0  0  0  0  0  0  0  0  0
  -15.7422  -43.3447  -23.2796 N   0  0  0  0  0  0  0  0  0  0  0  0
  -16.2751  -43.1009  -21.8411 C   0  0  0  0  0  0  0  0  0  0  0  0
  -16.7644  -41.9538  -21.8612 O   0  0  0  0  0  0  0  0  0  0  0  0
  -17.0751  -44.3973  -22.1642 C   0  0  0  0  0  0  0  0  0  0  0  0
  -17.6550  -44.6887  -20.7774 C   0  0  1  0  0  0  0  0  0  0  0  0
  -18.7628  -45.7244  -20.8045 C   0  0  0  0  0  0  0  0  0  0  0  0
  -19.2641  -45.9534  -19.3819 C   0  0  0  0  0  0  0  0  0  0  0  0
  -18.1103  -46.2929  -18.4438 C   0  0  0  0  0  0  0  0  0  0  0  0
  -16.9734  -45.2953  -18.5847 C   0  0  0  0  0  0  0  0  0  0  0  0
  -16.5821  -45.1746  -19.9506 O   0  0  0  0  0  0  0  0  0  0  0  0
  -15.6388  -39.8272  -25.0455 C   0  0  0  0  0  0  0  0  0  0  0  0
  -14.7053  -39.4518  -24.3296 O   0  0  0  0  0  0  0  0  0  0  0  0
  -16.6828  -38.8305  -25.3183 C   0  0  0  0  0  0  0  0  0  0  0  0
  -17.1712  -38.1445  -24.2020 C   0  0  0  0  0  0  0  0  0  0  0  0
  -18.2281  -37.2572  -24.3393 C   0  0  0  0  0  0  0  0  0  0  0  0
  -18.7813  -37.1025  -25.5953 C   0  0  0  0  0  0  0  0  0  0  0  0
  -18.3252  -37.7244  -26.7095 N   0  0  0  0  0  0  0  0  0  0  0  0
  -17.2475  -38.5466  -26.5458 C   0  0  0  0  0  0  0  0  0  0  0  0
  1  2  1  0
  2  3  1  0
  3  4  1  0
  4  5  1  0
  5  6  1  0
  6  7  2  0
  6  8  1  0
  9  8  1  6
  9 10  1  0
 10 11  1  0
 11 12  1  0
 12 13  1  0
 13 14  1  0
  2 15  1  0
 15 16  2  0
 15 17  1  0
 17 18  2  0
 18 19  1  0
 19 20  2  0
 20 21  1  0
 21 22  2  0
 14  9  1  0
 22 17  1  0
M  END
>  <csv_name>  (61) 
RdRp_knitwork_primer_grip_n_pocket_impure_split4000_batch002.csv

>  <exports>  (61) 
['/opt/xchem-fragalysis-2/maxwin/BulkDock/OUTPUTS/RdRp_knitwork_primer_grip_n_pocket_impure_split4000_batch002_211034.sdf']

>  <original SMILES>  (61) 
CN(CCNC(=O)C[C@H]1CCCCO1)C(=O)c1cccnc1

>  <tags>  (61) 
['Fragmenstein placed']

>  <alias>  (61) 
None

>  <fragmenstein_outcome>  (61) 
['acceptable']

>  <HIPPO Compound ID>  (61) 
15070

>  <name>  (61) 
RGSIWFCRLMCKRU-CQSZACIVSA-N

>  <fragmenstein_mode>  (61) 
['expansion']

>  <ref_pdb>  (61) 
d0254a

>  <HIPPO Pose ID>  (61) 
45423

>  <distance_score>  (61) 
0.960775

>  <original ID>  (61) 
RGSIWFCRLMCKRU-CQSZACIVSA-N

>  <ref_mols>  (61) 
d0191a,d0254a

>  <SLURM_JOB_NAME>  (61) 
BulkDock.place:Flavi_NS5_RdRp:RdRp_knitwork_primer_grip_n_pocket_impure_split4000_batch002

>  <fragmenstein_runtime>  (61) 
[7.294503211975098]

>  <fragmenstein_error>  (61) 
['']

>  <energy_score>  (61) 
-2.790234

>  <inchikey>  (61) 
RGSIWFCRLMCKRU-CQSZACIVSA-N

>  <SLURM_JOB_ID>  (61) 
211034

>  <scratch_subdir>  (61) 
['/opt/xchem-fragalysis-2/maxwin/BulkDock/SCRATCH/211034/C15070-P26']

$$$$
45494
     RDKit          3D

 11 12  0  0  0  0  0  0  0  0999 V2000
  -15.8922  -41.9034  -25.4402 C   0  0  0  0  0  0  0  0  0  0  0  0
  -16.3858  -42.3490  -26.6539 C   0  0  0  0  0  0  0  0  0  0  0  0
  -17.0732  -41.5851  -27.5283 N   0  0  0  0  0  0  0  0  0  0  0  0
  -17.2744  -40.3030  -27.1610 C   0  0  0  0  0  0  0  0  0  0  0  0
  -16.8687  -39.7632  -25.9494 C   0  0  0  0  0  0  0  0  0  0  0  0
  -17.3519  -38.4526  -25.5665 C   0  0  0  0  0  0  0  0  0  0  0  0
  -18.2786  -37.7002  -26.1430 N   0  0  0  0  0  0  0  0  0  0  0  0
  -18.4889  -36.7037  -25.2215 C   0  0  0  0  0  0  0  0  0  0  0  0
  -17.6626  -36.8723  -24.1417 C   0  0  0  0  0  0  0  0  0  0  0  0
  -16.9236  -37.9908  -24.3497 O   0  0  0  0  0  0  0  0  0  0  0  0
  -16.1347  -40.5839  -25.0866 C   0  0  0  0  0  0  0  0  0  0  0  0
  1  2  2  0
  2  3  1  0
  3  4  2  0
  4  5  1  0
  5  6  1  0
  6  7  2  0
  7  8  1  0
  8  9  2  0
  9 10  1  0
  5 11  2  0
 11  1  1  0
 10  6  1  0
M  END
>  <csv_name>  (62) 
RdRp_knitwork_primer_grip_n_pocket_impure_split4000_batch003.csv

>  <exports>  (62) 
['/opt/xchem-fragalysis-2/maxwin/BulkDock/OUTPUTS/RdRp_knitwork_primer_grip_n_pocket_impure_split4000_batch003_211035.sdf']

>  <original SMILES>  (62) 
c1cncc(-c2ncco2)c1

>  <tags>  (62) 
['Fragmenstein placed']

>  <alias>  (62) 
None

>  <fragmenstein_outcome>  (62) 
['acceptable']

>  <HIPPO Compound ID>  (62) 
9110

>  <name>  (62) 
AWNUFCKXIZAWBG-UHFFFAOYSA-N

>  <fragmenstein_mode>  (62) 
['expansion']

>  <ref_pdb>  (62) 
d0160a

>  <HIPPO Pose ID>  (62) 
45494

>  <distance_score>  (62) 
0.999925

>  <original ID>  (62) 
AWNUFCKXIZAWBG-UHFFFAOYSA-N

>  <ref_mols>  (62) 
d0160a,d0191a

>  <SLURM_JOB_NAME>  (62) 
BulkDock.place:Flavi_NS5_RdRp:RdRp_knitwork_primer_grip_n_pocket_impure_split4000_batch003

>  <fragmenstein_runtime>  (62) 
[1.3835973739624023]

>  <fragmenstein_error>  (62) 
['']

>  <energy_score>  (62) 
-13.148205

>  <inchikey>  (62) 
AWNUFCKXIZAWBG-UHFFFAOYSA-N

>  <SLURM_JOB_ID>  (62) 
211035

>  <scratch_subdir>  (62) 
['/opt/xchem-fragalysis-2/maxwin/BulkDock/SCRATCH/211035/C9110-P12']

$$$$
45497
     RDKit          3D

 11 12  0  0  0  0  0  0  0  0999 V2000
  -16.0852  -42.5078  -25.5958 C   0  0  0  0  0  0  0  0  0  0  0  0
  -15.2235  -41.4578  -25.3230 C   0  0  0  0  0  0  0  0  0  0  0  0
  -15.6348  -40.1555  -25.5728 C   0  0  0  0  0  0  0  0  0  0  0  0
  -16.9233  -39.9463  -26.0663 C   0  0  0  0  0  0  0  0  0  0  0  0
  -17.5128  -38.6481  -25.9197 N   0  0  0  0  0  0  0  0  0  0  0  0
  -17.0508  -37.6312  -25.1061 C   0  0  0  0  0  0  0  0  0  0  0  0
  -18.1019  -36.7761  -24.8873 C   0  0  0  0  0  0  0  0  0  0  0  0
  -19.1327  -37.2793  -25.6857 C   0  0  0  0  0  0  0  0  0  0  0  0
  -18.7629  -38.3463  -26.3977 N   0  0  0  0  0  0  0  0  0  0  0  0
  -17.7371  -40.9704  -26.4441 N   0  0  0  0  0  0  0  0  0  0  0  0
  -17.3067  -42.2165  -26.1689 C   0  0  0  0  0  0  0  0  0  0  0  0
  1  2  2  0
  2  3  1  0
  3  4  2  0
  4  5  1  0
  5  6  1  0
  6  7  2  0
  7  8  1  0
  8  9  2  0
  4 10  1  0
 10 11  2  0
 11  1  1  0
  9  5  1  0
M  END
>  <csv_name>  (63) 
RdRp_knitwork_primer_grip_n_pocket_impure_split4000_batch003.csv

>  <exports>  (63) 
['/opt/xchem-fragalysis-2/maxwin/BulkDock/OUTPUTS/RdRp_knitwork_primer_grip_n_pocket_impure_split4000_batch003_211035.sdf']

>  <original SMILES>  (63) 
c1ccc(-n2cccn2)nc1

>  <tags>  (63) 
['Fragmenstein placed']

>  <alias>  (63) 
None

>  <fragmenstein_outcome>  (63) 
['acceptable']

>  <HIPPO Compound ID>  (63) 
9113

>  <name>  (63) 
XXTPHXNBKRVYJI-UHFFFAOYSA-N

>  <fragmenstein_mode>  (63) 
['expansion']

>  <ref_pdb>  (63) 
d0160a

>  <HIPPO Pose ID>  (63) 
45497

>  <distance_score>  (63) 
0.977262

>  <original ID>  (63) 
XXTPHXNBKRVYJI-UHFFFAOYSA-N

>  <ref_mols>  (63) 
d0160a,d0191a

>  <SLURM_JOB_NAME>  (63) 
BulkDock.place:Flavi_NS5_RdRp:RdRp_knitwork_primer_grip_n_pocket_impure_split4000_batch003

>  <fragmenstein_runtime>  (63) 
[1.7435197830200195]

>  <fragmenstein_error>  (63) 
['']

>  <energy_score>  (63) 
-26.908495

>  <inchikey>  (63) 
XXTPHXNBKRVYJI-UHFFFAOYSA-N

>  <SLURM_JOB_ID>  (63) 
211035

>  <scratch_subdir>  (63) 
['/opt/xchem-fragalysis-2/maxwin/BulkDock/SCRATCH/211035/C9113-P12']

$$$$
45516
     RDKit          3D

 11 12  0  0  0  0  0  0  0  0999 V2000
  -16.1358  -42.5328  -25.6239 C   0  0  0  0  0  0  0  0  0  0  0  0
  -15.2174  -41.5012  -25.4915 C   0  0  0  0  0  0  0  0  0  0  0  0
  -15.6120  -40.1955  -25.7438 C   0  0  0  0  0  0  0  0  0  0  0  0
  -16.9491  -39.9603  -26.0558 C   0  0  0  0  0  0  0  0  0  0  0  0
  -17.5773  -38.6468  -25.8198 C   0  0  0  0  0  0  0  0  0  0  0  0
  -18.6587  -38.1548  -26.4084 N   0  0  0  0  0  0  0  0  0  0  0  0
  -19.1473  -37.1010  -25.6564 C   0  0  0  0  0  0  0  0  0  0  0  0
  -18.3715  -36.6987  -24.5951 C   0  0  0  0  0  0  0  0  0  0  0  0
  -17.0354  -37.7396  -24.4387 S   0  0  0  0  0  0  0  0  0  0  0  0
  -17.8401  -40.9649  -26.2748 N   0  0  0  0  0  0  0  0  0  0  0  0
  -17.4139  -42.2200  -26.0394 C   0  0  0  0  0  0  0  0  0  0  0  0
  1  2  2  0
  2  3  1  0
  3  4  2  0
  4  5  1  0
  5  6  2  0
  6  7  1  0
  7  8  2  0
  8  9  1  0
  4 10  1  0
 10 11  2  0
 11  1  1  0
  9  5  1  0
M  END
>  <csv_name>  (64) 
RdRp_knitwork_primer_grip_n_pocket_impure_split4000_batch003.csv

>  <exports>  (64) 
['/opt/xchem-fragalysis-2/maxwin/BulkDock/OUTPUTS/RdRp_knitwork_primer_grip_n_pocket_impure_split4000_batch003_211035.sdf']

>  <original SMILES>  (64) 
c1ccc(-c2nccs2)nc1

>  <tags>  (64) 
['Fragmenstein placed']

>  <alias>  (64) 
None

>  <fragmenstein_outcome>  (64) 
['acceptable']

>  <HIPPO Compound ID>  (64) 
8457

>  <name>  (64) 
FZSXKNJOKINZSF-UHFFFAOYSA-N

>  <fragmenstein_mode>  (64) 
['expansion']

>  <ref_pdb>  (64) 
d0160a

>  <HIPPO Pose ID>  (64) 
45516

>  <distance_score>  (64) 
0.982607

>  <original ID>  (64) 
FZSXKNJOKINZSF-UHFFFAOYSA-N

>  <ref_mols>  (64) 
d0160a,d0191a

>  <SLURM_JOB_NAME>  (64) 
BulkDock.place:Flavi_NS5_RdRp:RdRp_knitwork_primer_grip_n_pocket_impure_split4000_batch003

>  <fragmenstein_runtime>  (64) 
[0.9330174922943115]

>  <fragmenstein_error>  (64) 
['']

>  <energy_score>  (64) 
-68.506611

>  <inchikey>  (64) 
FZSXKNJOKINZSF-UHFFFAOYSA-N

>  <SLURM_JOB_ID>  (64) 
211035

>  <scratch_subdir>  (64) 
['/opt/xchem-fragalysis-2/maxwin/BulkDock/SCRATCH/211035/C8457-P12']

$$$$
45530
     RDKit          3D

 11 12  0  0  0  0  0  0  0  0999 V2000
  -16.0625  -42.4700  -25.5982 C   0  0  0  0  0  0  0  0  0  0  0  0
  -15.1927  -41.4136  -25.3702 C   0  0  0  0  0  0  0  0  0  0  0  0
  -15.6130  -40.1172  -25.6300 C   0  0  0  0  0  0  0  0  0  0  0  0
  -16.9158  -39.9213  -26.0825 C   0  0  0  0  0  0  0  0  0  0  0  0
  -17.5639  -38.6172  -25.9300 C   0  0  0  0  0  0  0  0  0  0  0  0
  -18.6948  -38.1347  -26.4309 N   0  0  0  0  0  0  0  0  0  0  0  0
  -18.9745  -37.0635  -25.6161 C   0  0  0  0  0  0  0  0  0  0  0  0
  -17.9609  -36.8708  -24.7169 C   0  0  0  0  0  0  0  0  0  0  0  0
  -17.0428  -37.8496  -24.9101 O   0  0  0  0  0  0  0  0  0  0  0  0
  -17.7542  -40.9475  -26.3912 N   0  0  0  0  0  0  0  0  0  0  0  0
  -17.3091  -42.1904  -26.1231 C   0  0  0  0  0  0  0  0  0  0  0  0
  1  2  2  0
  2  3  1  0
  3  4  2  0
  4  5  1  0
  5  6  2  0
  6  7  1  0
  7  8  2  0
  8  9  1  0
  4 10  1  0
 10 11  2  0
 11  1  1  0
  9  5  1  0
M  END
>  <csv_name>  (65) 
RdRp_knitwork_primer_grip_n_pocket_impure_split4000_batch003.csv

>  <exports>  (65) 
['/opt/xchem-fragalysis-2/maxwin/BulkDock/OUTPUTS/RdRp_knitwork_primer_grip_n_pocket_impure_split4000_batch003_211035.sdf']

>  <original SMILES>  (65) 
c1ccc(-c2ncco2)nc1

>  <tags>  (65) 
['Fragmenstein placed']

>  <alias>  (65) 
None

>  <fragmenstein_outcome>  (65) 
['acceptable']

>  <HIPPO Compound ID>  (65) 
9924

>  <name>  (65) 
BNBQQYFXBLBYJK-UHFFFAOYSA-N

>  <fragmenstein_mode>  (65) 
['expansion']

>  <ref_pdb>  (65) 
d0160a

>  <HIPPO Pose ID>  (65) 
45530

>  <distance_score>  (65) 
0.886163

>  <original ID>  (65) 
BNBQQYFXBLBYJK-UHFFFAOYSA-N

>  <ref_mols>  (65) 
d0160a,d0191a

>  <SLURM_JOB_NAME>  (65) 
BulkDock.place:Flavi_NS5_RdRp:RdRp_knitwork_primer_grip_n_pocket_impure_split4000_batch003

>  <fragmenstein_runtime>  (65) 
[1.1980211734771729]

>  <fragmenstein_error>  (65) 
['']

>  <energy_score>  (65) 
-9.400552

>  <inchikey>  (65) 
BNBQQYFXBLBYJK-UHFFFAOYSA-N

>  <SLURM_JOB_ID>  (65) 
211035

>  <scratch_subdir>  (65) 
['/opt/xchem-fragalysis-2/maxwin/BulkDock/SCRATCH/211035/C9924-P12']

$$$$
46189
     RDKit          3D

 19 20  0  0  0  0  0  0  0  0999 V2000
  -16.1145  -42.8918  -21.1377 O   0  0  0  0  0  0  0  0  0  0  0  0
  -15.9863  -43.4004  -22.2355 C   0  0  0  0  0  0  0  0  0  0  0  0
  -16.2884  -44.7978  -22.6065 C   0  0  0  0  0  0  0  0  0  0  0  0
  -16.9274  -45.7103  -21.8644 C   0  0  0  0  0  0  0  0  0  0  0  0
  -17.2697  -45.6005  -20.4958 C   0  0  0  0  0  0  0  0  0  0  0  0
  -18.5386  -45.4489  -19.9871 C   0  0  0  0  0  0  0  0  0  0  0  0
  -18.4563  -45.4205  -18.2731 S   0  0  0  0  0  0  0  0  0  0  0  0
  -16.7541  -45.6271  -18.3707 C   0  0  0  0  0  0  0  0  0  0  0  0
  -16.2523  -45.7463  -19.5812 N   0  0  0  0  0  0  0  0  0  0  0  0
  -15.5711  -42.7238  -23.3359 O   0  0  0  0  0  0  0  0  0  0  0  0
  -16.6273  -42.4394  -24.2620 C   0  0  0  0  0  0  0  0  0  0  0  0
  -16.0190  -42.1496  -25.6176 C   0  0  0  0  0  0  0  0  0  0  0  0
  -15.1947  -40.8600  -25.6273 C   0  0  0  0  0  0  0  0  0  0  0  0
  -15.8712  -39.7432  -26.4166 C   0  0  0  0  0  0  0  0  0  0  0  0
  -17.0966  -39.1756  -25.7204 C   0  0  1  0  0  0  0  0  0  0  0  0
  -16.7471  -38.3679  -24.4821 C   0  0  0  0  0  0  0  0  0  0  0  0
  -17.9273  -37.4467  -24.3706 C   0  0  0  0  0  0  0  0  0  0  0  0
  -18.2878  -37.1843  -25.8139 C   0  0  0  0  0  0  0  0  0  0  0  0
  -17.8153  -38.2865  -26.5956 O   0  0  0  0  0  0  0  0  0  0  0  0
  1  2  2  0
  2  3  1  0
  3  4  2  3
  4  5  1  0
  5  6  2  0
  6  7  1  0
  7  8  1  0
  8  9  2  0
  2 10  1  0
 10 11  1  0
 11 12  1  0
 12 13  1  0
 13 14  1  0
 15 14  1  6
 15 16  1  0
 16 17  1  0
 17 18  1  0
 18 19  1  0
  9  5  1  0
 19 15  1  0
M  END
>  <csv_name>  (66) 
RdRp_knitwork_primer_grip_n_pocket_impure_split4000_batch004.csv

>  <exports>  (66) 
['/opt/xchem-fragalysis-2/maxwin/BulkDock/OUTPUTS/RdRp_knitwork_primer_grip_n_pocket_impure_split4000_batch004_211036.sdf']

>  <original SMILES>  (66) 
O=C(C=Cc1cscn1)OCCCC[C@H]1CCCO1

>  <tags>  (66) 
['Fragmenstein placed']

>  <alias>  (66) 
None

>  <fragmenstein_outcome>  (66) 
['acceptable']

>  <HIPPO Compound ID>  (66) 
9420

>  <name>  (66) 
MKHBBPCZLAEZGC-ZDUSSCGKSA-N

>  <fragmenstein_mode>  (66) 
['expansion']

>  <ref_pdb>  (66) 
d0191a

>  <HIPPO Pose ID>  (66) 
46189

>  <distance_score>  (66) 
0.986395

>  <original ID>  (66) 
MKHBBPCZLAEZGC-ZDUSSCGKSA-N

>  <ref_mols>  (66) 
d0191a,d0254a

>  <SLURM_JOB_NAME>  (66) 
BulkDock.place:Flavi_NS5_RdRp:RdRp_knitwork_primer_grip_n_pocket_impure_split4000_batch004

>  <fragmenstein_runtime>  (66) 
[5.221753358840942]

>  <fragmenstein_error>  (66) 
['']

>  <energy_score>  (66) 
-48.593273

>  <inchikey>  (66) 
MKHBBPCZLAEZGC-ZDUSSCGKSA-N

>  <SLURM_JOB_ID>  (66) 
211036

>  <scratch_subdir>  (66) 
['/opt/xchem-fragalysis-2/maxwin/BulkDock/SCRATCH/211036/C9420-P19']

$$$$
46190
     RDKit          3D

 19 20  0  0  0  0  0  0  0  0999 V2000
  -14.6899  -42.6413  -21.8957 O   0  0  0  0  0  0  0  0  0  0  0  0
  -15.3195  -43.2933  -22.7150 C   0  0  0  0  0  0  0  0  0  0  0  0
  -16.2280  -44.3628  -22.2997 C   0  0  0  0  0  0  0  0  0  0  0  0
  -17.0603  -45.3436  -21.9223 C   0  0  0  0  0  0  0  0  0  0  0  0
  -17.5133  -45.4446  -20.5781 C   0  0  0  0  0  0  0  0  0  0  0  0
  -18.6480  -46.0987  -20.1564 C   0  0  0  0  0  0  0  0  0  0  0  0
  -18.7991  -45.9471  -18.4531 S   0  0  0  0  0  0  0  0  0  0  0  0
  -17.3297  -45.0683  -18.4253 C   0  0  0  0  0  0  0  0  0  0  0  0
  -16.7532  -44.8713  -19.5874 N   0  0  0  0  0  0  0  0  0  0  0  0
  -15.2354  -43.0586  -24.0483 O   0  0  0  0  0  0  0  0  0  0  0  0
  -16.4703  -42.7453  -24.7049 C   0  0  0  0  0  0  0  0  0  0  0  0
  -16.1658  -42.0357  -26.0134 C   0  0  0  0  0  0  0  0  0  0  0  0
  -15.2962  -40.7830  -25.8260 C   0  0  0  0  0  0  0  0  0  0  0  0
  -15.9495  -39.5363  -26.4151 C   0  0  0  0  0  0  0  0  0  0  0  0
  -17.0289  -38.9755  -25.4991 C   0  0  1  0  0  0  0  0  0  0  0  0
  -16.5112  -38.1277  -24.3529 C   0  0  0  0  0  0  0  0  0  0  0  0
  -17.7432  -37.3339  -24.0018 C   0  0  0  0  0  0  0  0  0  0  0  0
  -18.3800  -37.0933  -25.3549 C   0  0  0  0  0  0  0  0  0  0  0  0
  -17.9439  -38.1408  -26.2348 O   0  0  0  0  0  0  0  0  0  0  0  0
  1  2  2  0
  2  3  1  0
  3  4  2  3
  4  5  1  0
  5  6  2  0
  6  7  1  0
  7  8  1  0
  8  9  2  0
  2 10  1  0
 10 11  1  0
 11 12  1  0
 12 13  1  0
 13 14  1  0
 15 14  1  6
 15 16  1  0
 16 17  1  0
 17 18  1  0
 18 19  1  0
  9  5  1  0
 19 15  1  0
M  END
>  <csv_name>  (67) 
RdRp_knitwork_primer_grip_n_pocket_impure_split4000_batch004.csv

>  <exports>  (67) 
['/opt/xchem-fragalysis-2/maxwin/BulkDock/OUTPUTS/RdRp_knitwork_primer_grip_n_pocket_impure_split4000_batch004_211036.sdf']

>  <original SMILES>  (67) 
O=C(C=Cc1cscn1)OCCCC[C@H]1CCCO1

>  <tags>  (67) 
['Fragmenstein placed']

>  <alias>  (67) 
None

>  <fragmenstein_outcome>  (67) 
['acceptable']

>  <HIPPO Compound ID>  (67) 
9420

>  <name>  (67) 
MKHBBPCZLAEZGC-ZDUSSCGKSA-N

>  <fragmenstein_mode>  (67) 
['expansion']

>  <ref_pdb>  (67) 
d0254a

>  <HIPPO Pose ID>  (67) 
46190

>  <distance_score>  (67) 
0.933482

>  <original ID>  (67) 
MKHBBPCZLAEZGC-ZDUSSCGKSA-N

>  <ref_mols>  (67) 
d0191a,d0254a

>  <SLURM_JOB_NAME>  (67) 
BulkDock.place:Flavi_NS5_RdRp:RdRp_knitwork_primer_grip_n_pocket_impure_split4000_batch004

>  <fragmenstein_runtime>  (67) 
[4.1744325160980225]

>  <fragmenstein_error>  (67) 
['']

>  <energy_score>  (67) 
-2.150412

>  <inchikey>  (67) 
MKHBBPCZLAEZGC-ZDUSSCGKSA-N

>  <SLURM_JOB_ID>  (67) 
211036

>  <scratch_subdir>  (67) 
['/opt/xchem-fragalysis-2/maxwin/BulkDock/SCRATCH/211036/C9420-P26']

$$$$
46502
     RDKit          3D

 22 24  0  0  0  0  0  0  0  0999 V2000
  -16.2046  -45.4478  -16.9863 O   0  0  0  0  0  0  0  0  0  0  0  0
  -16.8152  -45.6671  -18.0360 C   0  0  0  0  0  0  0  0  0  0  0  0
  -18.0051  -44.8272  -18.4428 C   0  0  0  0  0  0  0  0  0  0  0  0
  -18.5523  -45.0963  -19.8466 C   0  0  0  0  0  0  0  0  0  0  0  0
  -17.5913  -45.6735  -20.8998 C   0  0  0  0  0  0  0  0  0  0  0  0
  -17.3698  -44.7798  -22.1465 C   0  0  0  0  0  0  0  0  0  0  0  0
  -17.9425  -45.1542  -23.1805 O   0  0  0  0  0  0  0  0  0  0  0  0
  -16.6541  -43.5697  -22.0691 N   0  0  0  0  0  0  0  0  0  0  0  0
  -16.1574  -43.0070  -20.7934 C   0  0  0  0  0  0  0  0  0  0  0  0
  -14.7159  -42.4558  -20.7078 C   0  0  2  0  0  0  0  0  0  0  0  0
  -13.6189  -43.4978  -20.8014 C   0  0  0  0  0  0  0  0  0  0  0  0
  -13.3229  -43.8190  -19.3598 C   0  0  0  0  0  0  0  0  0  0  0  0
  -13.5218  -42.4813  -18.6918 C   0  0  0  0  0  0  0  0  0  0  0  0
  -14.5823  -41.8327  -19.4050 O   0  0  0  0  0  0  0  0  0  0  0  0
  -16.4292  -42.7702  -23.2653 C   0  0  0  0  0  0  0  0  0  0  0  0
  -16.3487  -43.3286  -24.5419 C   0  0  0  0  0  0  0  0  0  0  0  0
  -16.0789  -42.5167  -25.6363 C   0  0  0  0  0  0  0  0  0  0  0  0
  -15.8441  -41.1968  -25.5423 N   0  0  0  0  0  0  0  0  0  0  0  0
  -15.9385  -40.6582  -24.3222 C   0  0  0  0  0  0  0  0  0  0  0  0
  -16.2505  -41.3863  -23.1847 C   0  0  0  0  0  0  0  0  0  0  0  0
  -16.3060  -46.3152  -20.3724 C   0  0  0  0  0  0  0  0  0  0  0  0
  -16.4322  -46.8025  -18.9410 C   0  0  0  0  0  0  0  0  0  0  0  0
  1  2  2  0
  2  3  1  0
  3  4  1  0
  4  5  1  0
  5  6  1  0
  6  7  2  0
  6  8  1  0
  8  9  1  0
 10  9  1  1
 10 11  1  0
 11 12  1  0
 12 13  1  0
 13 14  1  0
  8 15  1  0
 15 16  2  0
 16 17  1  0
 17 18  2  0
 18 19  1  0
 19 20  2  0
  5 21  1  0
 21 22  1  0
 22  2  1  0
 14 10  1  0
 20 15  1  0
M  END
>  <csv_name>  (68) 
RdRp_knitwork_primer_grip_n_pocket_impure_split4000_batch004.csv

>  <exports>  (68) 
['/opt/xchem-fragalysis-2/maxwin/BulkDock/OUTPUTS/RdRp_knitwork_primer_grip_n_pocket_impure_split4000_batch004_211036.sdf']

>  <original SMILES>  (68) 
O=C1CCC(C(=O)N(C[C@@H]2CCCO2)c2ccncc2)CC1

>  <tags>  (68) 
['Fragmenstein placed']

>  <alias>  (68) 
None

>  <fragmenstein_outcome>  (68) 
['acceptable']

>  <HIPPO Compound ID>  (68) 
11054

>  <name>  (68) 
HFQYDVNBFNHOJT-INIZCTEOSA-N

>  <fragmenstein_mode>  (68) 
['expansion']

>  <ref_pdb>  (68) 
d0191a

>  <HIPPO Pose ID>  (68) 
46502

>  <distance_score>  (68) 
0.863494

>  <original ID>  (68) 
HFQYDVNBFNHOJT-INIZCTEOSA-N

>  <ref_mols>  (68) 
d0191a,d0254a

>  <SLURM_JOB_NAME>  (68) 
BulkDock.place:Flavi_NS5_RdRp:RdRp_knitwork_primer_grip_n_pocket_impure_split4000_batch004

>  <fragmenstein_runtime>  (68) 
[16.255483627319336]

>  <fragmenstein_error>  (68) 
['']

>  <energy_score>  (68) 
-386.936477

>  <inchikey>  (68) 
HFQYDVNBFNHOJT-INIZCTEOSA-N

>  <SLURM_JOB_ID>  (68) 
211036

>  <scratch_subdir>  (68) 
['/opt/xchem-fragalysis-2/maxwin/BulkDock/SCRATCH/211036/C11054-P19']

$$$$
46669
     RDKit          3D

 23 24  0  0  0  0  0  0  0  0999 V2000
  -16.0402  -37.5508  -22.2268 C   0  0  0  0  0  0  0  0  0  0  0  0
  -15.6801  -38.0360  -23.5135 O   0  0  0  0  0  0  0  0  0  0  0  0
  -16.5771  -37.8357  -24.5296 C   0  0  0  0  0  0  0  0  0  0  0  0
  -17.6362  -36.9345  -24.4811 C   0  0  0  0  0  0  0  0  0  0  0  0
  -18.5179  -36.8888  -25.5526 C   0  0  0  0  0  0  0  0  0  0  0  0
  -18.4072  -37.6405  -26.6735 N   0  0  0  0  0  0  0  0  0  0  0  0
  -17.3479  -38.4914  -26.7136 C   0  0  0  0  0  0  0  0  0  0  0  0
  -16.4405  -38.6295  -25.6742 C   0  0  0  0  0  0  0  0  0  0  0  0
  -15.5509  -39.7987  -25.6799 C   0  0  0  0  0  0  0  0  0  0  0  0
  -14.5247  -39.7688  -26.3443 O   0  0  0  0  0  0  0  0  0  0  0  0
  -16.0056  -40.9228  -24.9839 N   0  0  0  0  0  0  0  0  0  0  0  0
  -17.3223  -40.9907  -24.3800 C   0  0  0  0  0  0  0  0  0  0  0  0
  -15.2058  -42.1422  -25.0566 C   0  0  0  0  0  0  0  0  0  0  0  0
  -15.4813  -43.2172  -23.9962 C   0  0  0  0  0  0  0  0  0  0  0  0
  -16.8455  -43.7477  -24.0974 N   0  0  0  0  0  0  0  0  0  0  0  0
  -17.4883  -44.3366  -22.7631 C   0  0  0  0  0  0  0  0  0  0  0  0
  -16.5765  -45.0921  -22.3951 O   0  0  0  0  0  0  0  0  0  0  0  0
  -18.7267  -44.6221  -23.6978 C   0  0  0  0  0  0  0  0  0  0  0  0
  -19.7032  -43.5120  -23.5393 C   0  0  0  0  0  0  0  0  0  0  0  0
  -20.4021  -42.9875  -22.4780 C   0  0  0  0  0  0  0  0  0  0  0  0
  -21.1326  -41.9289  -23.0437 C   0  0  0  0  0  0  0  0  0  0  0  0
  -20.9094  -41.8079  -24.3538 N   0  0  0  0  0  0  0  0  0  0  0  0
  -20.0290  -42.8291  -24.6702 O   0  0  0  0  0  0  0  0  0  0  0  0
  1  2  1  0
  2  3  1  0
  3  4  2  0
  4  5  1  0
  5  6  2  0
  6  7  1  0
  7  8  2  0
  8  9  1  0
  9 10  2  0
  9 11  1  0
 11 12  1  0
 11 13  1  0
 13 14  1  0
 14 15  1  0
 15 16  1  0
 16 17  2  0
 16 18  1  0
 18 19  1  0
 19 20  2  0
 20 21  1  0
 21 22  2  0
 22 23  1  0
  8  3  1  0
 23 19  1  0
M  END
>  <csv_name>  (69) 
RdRp_knitwork_primer_grip_n_pocket_impure_split4000_batch003.csv

>  <exports>  (69) 
['/opt/xchem-fragalysis-2/maxwin/BulkDock/OUTPUTS/RdRp_knitwork_primer_grip_n_pocket_impure_split4000_batch003_211035.sdf']

>  <original SMILES>  (69) 
COc1ccncc1C(=O)N(C)CCNC(=O)Cc1ccno1

>  <tags>  (69) 
['Fragmenstein placed']

>  <alias>  (69) 
None

>  <fragmenstein_outcome>  (69) 
['acceptable']

>  <HIPPO Compound ID>  (69) 
10601

>  <name>  (69) 
BQPJSVIWACYQPE-UHFFFAOYSA-N

>  <fragmenstein_mode>  (69) 
['expansion']

>  <ref_pdb>  (69) 
d0472a

>  <HIPPO Pose ID>  (69) 
46669

>  <distance_score>  (69) 
0.915311

>  <original ID>  (69) 
BQPJSVIWACYQPE-UHFFFAOYSA-N

>  <ref_mols>  (69) 
d0191a,d0472a

>  <SLURM_JOB_NAME>  (69) 
BulkDock.place:Flavi_NS5_RdRp:RdRp_knitwork_primer_grip_n_pocket_impure_split4000_batch003

>  <fragmenstein_runtime>  (69) 
[7.6377339363098145]

>  <fragmenstein_error>  (69) 
['']

>  <energy_score>  (69) 
-96.458098

>  <inchikey>  (69) 
BQPJSVIWACYQPE-UHFFFAOYSA-N

>  <SLURM_JOB_ID>  (69) 
211035

>  <scratch_subdir>  (69) 
['/opt/xchem-fragalysis-2/maxwin/BulkDock/SCRATCH/211035/C10601-P42']

$$$$
47308
     RDKit          3D

 17 18  0  0  0  0  0  0  0  0999 V2000
  -18.0373  -40.0835  -27.3177 C   0  0  0  0  0  0  0  0  0  0  0  0
  -17.6895  -39.0771  -26.2990 C   0  0  0  0  0  0  0  0  0  0  0  0
  -18.5817  -38.0413  -26.0673 N   0  0  0  0  0  0  0  0  0  0  0  0
  -18.1246  -37.3002  -25.0808 C   0  0  0  0  0  0  0  0  0  0  0  0
  -16.6377  -37.7900  -24.3928 S   0  0  0  0  0  0  0  0  0  0  0  0
  -16.5314  -39.0590  -25.5399 C   0  0  0  0  0  0  0  0  0  0  0  0
  -15.3112  -39.9194  -25.6563 C   0  0  0  0  0  0  0  0  0  0  0  0
  -14.9585  -40.5979  -24.3402 C   0  0  0  0  0  0  0  0  0  0  0  0
  -14.2360  -40.0001  -23.5319 O   0  0  0  0  0  0  0  0  0  0  0  0
  -15.4517  -41.8741  -24.0530 N   0  0  0  0  0  0  0  0  0  0  0  0
  -16.2221  -42.6832  -24.9825 C   0  0  0  0  0  0  0  0  0  0  0  0
  -14.9557  -42.4762  -22.8101 C   0  0  0  0  0  0  0  0  0  0  0  0
  -15.8336  -43.4507  -22.0939 C   0  0  0  0  0  0  0  0  0  0  0  0
  -17.1794  -43.7607  -22.1108 C   0  0  0  0  0  0  0  0  0  0  0  0
  -17.4570  -44.8224  -21.1918 C   0  0  0  0  0  0  0  0  0  0  0  0
  -16.4356  -45.2971  -20.4839 N   0  0  0  0  0  0  0  0  0  0  0  0
  -15.0952  -44.4180  -20.8731 S   0  0  0  0  0  0  0  0  0  0  0  0
  1  2  1  0
  2  3  1  0
  3  4  2  0
  4  5  1  0
  5  6  1  0
  6  7  1  0
  7  8  1  0
  8  9  2  0
  8 10  1  0
 10 11  1  0
 10 12  1  0
 12 13  1  0
 13 14  2  0
 14 15  1  0
 15 16  2  0
 16 17  1  0
  6  2  2  0
 17 13  1  0
M  END
>  <csv_name>  (70) 
RdRp_knitwork_primer_grip_n_pocket_impure_split4000_batch005.csv

>  <exports>  (70) 
['/opt/xchem-fragalysis-2/maxwin/BulkDock/OUTPUTS/RdRp_knitwork_primer_grip_n_pocket_impure_split4000_batch005_211037.sdf']

>  <original SMILES>  (70) 
Cc1ncsc1CC(=O)N(C)Cc1ccns1

>  <tags>  (70) 
['Fragmenstein placed']

>  <alias>  (70) 
None

>  <fragmenstein_outcome>  (70) 
['acceptable']

>  <HIPPO Compound ID>  (70) 
9500

>  <name>  (70) 
XIZFPLKEPXMVLN-UHFFFAOYSA-N

>  <fragmenstein_mode>  (70) 
['expansion']

>  <ref_pdb>  (70) 
d0472a

>  <HIPPO Pose ID>  (70) 
47308

>  <distance_score>  (70) 
0.939531

>  <original ID>  (70) 
XIZFPLKEPXMVLN-UHFFFAOYSA-N

>  <ref_mols>  (70) 
d0264a,d0472a,d0615b

>  <SLURM_JOB_NAME>  (70) 
BulkDock.place:Flavi_NS5_RdRp:RdRp_knitwork_primer_grip_n_pocket_impure_split4000_batch005

>  <fragmenstein_runtime>  (70) 
[3.111934185028076]

>  <fragmenstein_error>  (70) 
['']

>  <energy_score>  (70) 
-113.311811

>  <inchikey>  (70) 
XIZFPLKEPXMVLN-UHFFFAOYSA-N

>  <SLURM_JOB_ID>  (70) 
211037

>  <scratch_subdir>  (70) 
['/opt/xchem-fragalysis-2/maxwin/BulkDock/SCRATCH/211037/C9500-P42']

$$$$
47646
     RDKit          3D

 19 20  0  0  0  0  0  0  0  0999 V2000
  -16.6898  -47.7745  -20.4764 O   0  0  0  0  0  0  0  0  0  0  0  0
  -17.6034  -47.1340  -20.9773 C   0  0  0  0  0  0  0  0  0  0  0  0
  -18.1645  -47.4998  -22.1440 O   0  0  0  0  0  0  0  0  0  0  0  0
  -18.2915  -45.9828  -20.4683 C   0  0  0  0  0  0  0  0  0  0  0  0
  -18.5069  -45.5946  -19.1577 C   0  0  0  0  0  0  0  0  0  0  0  0
  -19.3551  -44.4556  -19.1830 C   0  0  0  0  0  0  0  0  0  0  0  0
  -19.9846  -43.6665  -17.7859 S   0  0  0  0  0  0  0  0  0  0  0  0
  -20.8945  -42.6583  -18.2800 O   0  0  0  0  0  0  0  0  0  0  0  0
  -18.8183  -43.3226  -17.0064 O   0  0  0  0  0  0  0  0  0  0  0  0
  -20.8513  -44.7957  -16.9210 N   0  0  0  0  0  0  0  0  0  0  0  0
  -22.1729  -45.1302  -17.4351 C   0  0  0  0  0  0  0  0  0  0  0  0
  -22.6282  -46.4271  -16.8453 C   0  0  0  0  0  0  0  0  0  0  0  0
  -23.5492  -46.4510  -15.8034 C   0  0  0  0  0  0  0  0  0  0  0  0
  -23.9515  -47.6784  -15.3275 C   0  0  0  0  0  0  0  0  0  0  0  0
  -23.4835  -48.8547  -15.7894 N   0  0  0  0  0  0  0  0  0  0  0  0
  -22.5799  -48.8055  -16.7868 C   0  0  0  0  0  0  0  0  0  0  0  0
  -22.1183  -47.6296  -17.3310 C   0  0  0  0  0  0  0  0  0  0  0  0
  -19.5998  -44.1429  -20.5033 C   0  0  0  0  0  0  0  0  0  0  0  0
  -18.9306  -45.0581  -21.2678 N   0  0  0  0  0  0  0  0  0  0  0  0
  1  2  2  0
  2  3  1  0
  2  4  1  0
  4  5  2  0
  5  6  1  0
  6  7  1  0
  7  8  2  0
  7  9  2  0
  7 10  1  0
 10 11  1  0
 11 12  1  0
 12 13  2  0
 13 14  1  0
 14 15  2  0
 15 16  1  0
 16 17  2  0
  6 18  2  0
 18 19  1  0
 19  4  1  0
 17 12  1  0
M  END
>  <csv_name>  (71) 
RdRp_knitwork_primer_grip_n_pocket_impure_split4000_batch004.csv

>  <exports>  (71) 
['/opt/xchem-fragalysis-2/maxwin/BulkDock/OUTPUTS/RdRp_knitwork_primer_grip_n_pocket_impure_split4000_batch004_211036.sdf']

>  <original SMILES>  (71) 
O=C(O)c1cc(S(=O)(=O)NCc2ccncc2)c[nH]1

>  <tags>  (71) 
['Fragmenstein placed']

>  <alias>  (71) 
None

>  <fragmenstein_outcome>  (71) 
['acceptable']

>  <HIPPO Compound ID>  (71) 
10564

>  <name>  (71) 
YZLMFJIBZWHYDW-UHFFFAOYSA-N

>  <fragmenstein_mode>  (71) 
['expansion']

>  <ref_pdb>  (71) 
d0264a

>  <HIPPO Pose ID>  (71) 
47646

>  <distance_score>  (71) 
0.859733

>  <original ID>  (71) 
YZLMFJIBZWHYDW-UHFFFAOYSA-N

>  <ref_mols>  (71) 
d0264a,d0472a

>  <SLURM_JOB_NAME>  (71) 
BulkDock.place:Flavi_NS5_RdRp:RdRp_knitwork_primer_grip_n_pocket_impure_split4000_batch004

>  <fragmenstein_runtime>  (71) 
[3.523015260696411]

>  <fragmenstein_error>  (71) 
['']

>  <energy_score>  (71) 
-43.943292

>  <inchikey>  (71) 
YZLMFJIBZWHYDW-UHFFFAOYSA-N

>  <SLURM_JOB_ID>  (71) 
211036

>  <scratch_subdir>  (71) 
['/opt/xchem-fragalysis-2/maxwin/BulkDock/SCRATCH/211036/C10564-P28']

$$$$
47649
     RDKit          3D

 19 20  0  0  0  0  0  0  0  0999 V2000
  -16.7613  -47.7977  -20.5116 O   0  0  0  0  0  0  0  0  0  0  0  0
  -17.6906  -47.1519  -20.9767 C   0  0  0  0  0  0  0  0  0  0  0  0
  -18.3313  -47.5325  -22.0955 O   0  0  0  0  0  0  0  0  0  0  0  0
  -18.3318  -45.9826  -20.4516 C   0  0  0  0  0  0  0  0  0  0  0  0
  -18.5040  -45.5989  -19.1341 C   0  0  0  0  0  0  0  0  0  0  0  0
  -19.3240  -44.4405  -19.1306 C   0  0  0  0  0  0  0  0  0  0  0  0
  -19.9053  -43.6606  -17.7084 S   0  0  0  0  0  0  0  0  0  0  0  0
  -20.8200  -42.6377  -18.1603 O   0  0  0  0  0  0  0  0  0  0  0  0
  -18.7156  -43.3490  -16.9507 O   0  0  0  0  0  0  0  0  0  0  0  0
  -20.7648  -44.7999  -16.8467 N   0  0  0  0  0  0  0  0  0  0  0  0
  -22.1057  -45.0879  -17.3318 C   0  0  0  0  0  0  0  0  0  0  0  0
  -22.5827  -46.3886  -16.7729 C   0  0  0  0  0  0  0  0  0  0  0  0
  -23.5343  -46.4173  -15.7615 C   0  0  0  0  0  0  0  0  0  0  0  0
  -23.9533  -47.6443  -15.3043 C   0  0  0  0  0  0  0  0  0  0  0  0
  -23.4772  -48.8191  -15.7641 N   0  0  0  0  0  0  0  0  0  0  0  0
  -22.5422  -48.7679  -16.7308 C   0  0  0  0  0  0  0  0  0  0  0  0
  -22.0644  -47.5889  -17.2536 C   0  0  0  0  0  0  0  0  0  0  0  0
  -19.5905  -44.1096  -20.4417 C   0  0  0  0  0  0  0  0  0  0  0  0
  -18.9656  -45.0368  -21.2311 N   0  0  0  0  0  0  0  0  0  0  0  0
  1  2  2  0
  2  3  1  0
  2  4  1  0
  4  5  2  0
  5  6  1  0
  6  7  1  0
  7  8  2  0
  7  9  2  0
  7 10  1  0
 10 11  1  0
 11 12  1  0
 12 13  2  0
 13 14  1  0
 14 15  2  0
 15 16  1  0
 16 17  2  0
  6 18  2  0
 18 19  1  0
 19  4  1  0
 17 12  1  0
M  END
>  <csv_name>  (72) 
RdRp_knitwork_primer_grip_n_pocket_impure_split4000_batch004.csv

>  <exports>  (72) 
['/opt/xchem-fragalysis-2/maxwin/BulkDock/OUTPUTS/RdRp_knitwork_primer_grip_n_pocket_impure_split4000_batch004_211036.sdf']

>  <original SMILES>  (72) 
O=C(O)c1cc(S(=O)(=O)NCc2ccncc2)c[nH]1

>  <tags>  (72) 
['Fragmenstein placed']

>  <alias>  (72) 
None

>  <fragmenstein_outcome>  (72) 
['acceptable']

>  <HIPPO Compound ID>  (72) 
10564

>  <name>  (72) 
YZLMFJIBZWHYDW-UHFFFAOYSA-N

>  <fragmenstein_mode>  (72) 
['expansion']

>  <ref_pdb>  (72) 
d0472a

>  <HIPPO Pose ID>  (72) 
47649

>  <distance_score>  (72) 
0.879928

>  <original ID>  (72) 
YZLMFJIBZWHYDW-UHFFFAOYSA-N

>  <ref_mols>  (72) 
d0264a,d0472a

>  <SLURM_JOB_NAME>  (72) 
BulkDock.place:Flavi_NS5_RdRp:RdRp_knitwork_primer_grip_n_pocket_impure_split4000_batch004

>  <fragmenstein_runtime>  (72) 
[2.986229419708252]

>  <fragmenstein_error>  (72) 
['']

>  <energy_score>  (72) 
-43.570708

>  <inchikey>  (72) 
YZLMFJIBZWHYDW-UHFFFAOYSA-N

>  <SLURM_JOB_ID>  (72) 
211036

>  <scratch_subdir>  (72) 
['/opt/xchem-fragalysis-2/maxwin/BulkDock/SCRATCH/211036/C10564-P42']

$$$$
47653
     RDKit          3D

 23 24  0  0  0  0  0  0  0  0999 V2000
  -16.4281  -47.4669  -20.3648 O   0  0  0  0  0  0  0  0  0  0  0  0
  -17.5172  -47.1418  -20.8145 C   0  0  0  0  0  0  0  0  0  0  0  0
  -18.1042  -47.8098  -21.8339 O   0  0  0  0  0  0  0  0  0  0  0  0
  -18.3372  -46.0231  -20.4164 C   0  0  0  0  0  0  0  0  0  0  0  0
  -18.7351  -45.6019  -19.1554 C   0  0  0  0  0  0  0  0  0  0  0  0
  -19.5348  -44.4351  -19.3191 C   0  0  0  0  0  0  0  0  0  0  0  0
  -20.2593  -43.5052  -18.0474 S   0  0  0  0  0  0  0  0  0  0  0  0
  -19.1299  -42.9898  -17.3102 O   0  0  0  0  0  0  0  0  0  0  0  0
  -21.1655  -42.5960  -18.7146 O   0  0  0  0  0  0  0  0  0  0  0  0
  -21.1435  -44.5213  -17.0542 N   0  0  0  0  0  0  0  0  0  0  0  0
  -21.2180  -44.1988  -15.6110 C   0  0  0  0  0  0  0  0  0  0  0  0
  -22.3233  -43.2038  -15.2621 C   0  0  0  0  0  0  0  0  0  0  0  0
  -22.5147  -43.1035  -13.7507 C   0  0  0  0  0  0  0  0  0  0  0  0
  -23.7910  -42.5493  -13.4330 O   0  0  0  0  0  0  0  0  0  0  0  0
  -22.3432  -45.1296  -17.6753 C   0  0  0  0  0  0  0  0  0  0  0  0
  -22.7214  -46.4484  -17.0593 C   0  0  0  0  0  0  0  0  0  0  0  0
  -23.6452  -46.4873  -16.0214 C   0  0  0  0  0  0  0  0  0  0  0  0
  -23.8846  -47.6921  -15.3978 C   0  0  0  0  0  0  0  0  0  0  0  0
  -23.1913  -48.8113  -15.8266 C   0  0  0  0  0  0  0  0  0  0  0  0
  -22.3199  -48.7045  -16.8900 C   0  0  0  0  0  0  0  0  0  0  0  0
  -22.0707  -47.5441  -17.5121 N   0  0  0  0  0  0  0  0  0  0  0  0
  -19.5984  -44.1672  -20.6715 C   0  0  0  0  0  0  0  0  0  0  0  0
  -18.8514  -45.1136  -21.3183 N   0  0  0  0  0  0  0  0  0  0  0  0
  1  2  2  0
  2  3  1  0
  2  4  1  0
  4  5  2  0
  5  6  1  0
  6  7  1  0
  7  8  2  0
  7  9  2  0
  7 10  1  0
 10 11  1  0
 11 12  1  0
 12 13  1  0
 13 14  1  0
 10 15  1  0
 15 16  1  0
 16 17  2  0
 17 18  1  0
 18 19  2  0
 19 20  1  0
 20 21  2  0
  6 22  2  0
 22 23  1  0
 23  4  1  0
 21 16  1  0
M  END
>  <csv_name>  (73) 
RdRp_knitwork_primer_grip_n_pocket_impure_split4000_batch004.csv

>  <exports>  (73) 
['/opt/xchem-fragalysis-2/maxwin/BulkDock/OUTPUTS/RdRp_knitwork_primer_grip_n_pocket_impure_split4000_batch004_211036.sdf']

>  <original SMILES>  (73) 
O=C(O)c1cc(S(=O)(=O)N(CCCO)Cc2ccccn2)c[nH]1

>  <tags>  (73) 
['Fragmenstein placed']

>  <alias>  (73) 
None

>  <fragmenstein_outcome>  (73) 
['acceptable']

>  <HIPPO Compound ID>  (73) 
10633

>  <name>  (73) 
HBBMJTRCBIBKHL-UHFFFAOYSA-N

>  <fragmenstein_mode>  (73) 
['expansion']

>  <ref_pdb>  (73) 
d0264a

>  <HIPPO Pose ID>  (73) 
47653

>  <distance_score>  (73) 
0.920938

>  <original ID>  (73) 
HBBMJTRCBIBKHL-UHFFFAOYSA-N

>  <ref_mols>  (73) 
d0264a,d0472a

>  <SLURM_JOB_NAME>  (73) 
BulkDock.place:Flavi_NS5_RdRp:RdRp_knitwork_primer_grip_n_pocket_impure_split4000_batch004

>  <fragmenstein_runtime>  (73) 
[12.5386381149292]

>  <fragmenstein_error>  (73) 
['']

>  <energy_score>  (73) 
-50.73148

>  <inchikey>  (73) 
HBBMJTRCBIBKHL-UHFFFAOYSA-N

>  <SLURM_JOB_ID>  (73) 
211036

>  <scratch_subdir>  (73) 
['/opt/xchem-fragalysis-2/maxwin/BulkDock/SCRATCH/211036/C10633-P28']

$$$$
47656
     RDKit          3D

 23 24  0  0  0  0  0  0  0  0999 V2000
  -16.8233  -47.6379  -20.2705 O   0  0  0  0  0  0  0  0  0  0  0  0
  -17.7346  -47.0810  -20.8665 C   0  0  0  0  0  0  0  0  0  0  0  0
  -18.2393  -47.5863  -22.0063 O   0  0  0  0  0  0  0  0  0  0  0  0
  -18.4653  -45.8941  -20.5263 C   0  0  0  0  0  0  0  0  0  0  0  0
  -18.9259  -45.4392  -19.2981 C   0  0  0  0  0  0  0  0  0  0  0  0
  -19.7213  -44.2853  -19.5433 C   0  0  0  0  0  0  0  0  0  0  0  0
  -20.6175  -43.3579  -18.3924 S   0  0  0  0  0  0  0  0  0  0  0  0
  -19.6173  -42.5615  -17.7191 O   0  0  0  0  0  0  0  0  0  0  0  0
  -21.6665  -42.7369  -19.1769 O   0  0  0  0  0  0  0  0  0  0  0  0
  -21.3367  -44.3642  -17.2826 N   0  0  0  0  0  0  0  0  0  0  0  0
  -20.6250  -44.7791  -16.0729 C   0  0  0  0  0  0  0  0  0  0  0  0
  -21.2682  -44.0877  -14.8717 C   0  0  0  0  0  0  0  0  0  0  0  0
  -21.1236  -44.9362  -13.6250 C   0  0  0  0  0  0  0  0  0  0  0  0
  -21.6688  -44.2741  -12.4864 O   0  0  0  0  0  0  0  0  0  0  0  0
  -22.5761  -45.0391  -17.6955 C   0  0  0  0  0  0  0  0  0  0  0  0
  -22.8669  -46.3617  -17.0417 C   0  0  0  0  0  0  0  0  0  0  0  0
  -23.7544  -46.4164  -15.9778 C   0  0  0  0  0  0  0  0  0  0  0  0
  -23.9208  -47.6177  -15.3237 C   0  0  0  0  0  0  0  0  0  0  0  0
  -23.1849  -48.7165  -15.7381 C   0  0  0  0  0  0  0  0  0  0  0  0
  -22.3488  -48.5950  -16.8268 C   0  0  0  0  0  0  0  0  0  0  0  0
  -22.1786  -47.4389  -17.4858 N   0  0  0  0  0  0  0  0  0  0  0  0
  -19.6691  -44.0273  -20.8978 C   0  0  0  0  0  0  0  0  0  0  0  0
  -18.9084  -45.0004  -21.4780 N   0  0  0  0  0  0  0  0  0  0  0  0
  1  2  2  0
  2  3  1  0
  2  4  1  0
  4  5  2  0
  5  6  1  0
  6  7  1  0
  7  8  2  0
  7  9  2  0
  7 10  1  0
 10 11  1  0
 11 12  1  0
 12 13  1  0
 13 14  1  0
 10 15  1  0
 15 16  1  0
 16 17  2  0
 17 18  1  0
 18 19  2  0
 19 20  1  0
 20 21  2  0
  6 22  2  0
 22 23  1  0
 23  4  1  0
 21 16  1  0
M  END
>  <csv_name>  (74) 
RdRp_knitwork_primer_grip_n_pocket_impure_split4000_batch004.csv

>  <exports>  (74) 
['/opt/xchem-fragalysis-2/maxwin/BulkDock/OUTPUTS/RdRp_knitwork_primer_grip_n_pocket_impure_split4000_batch004_211036.sdf']

>  <original SMILES>  (74) 
O=C(O)c1cc(S(=O)(=O)N(CCCO)Cc2ccccn2)c[nH]1

>  <tags>  (74) 
['Fragmenstein placed']

>  <alias>  (74) 
None

>  <fragmenstein_outcome>  (74) 
['acceptable']

>  <HIPPO Compound ID>  (74) 
10633

>  <name>  (74) 
HBBMJTRCBIBKHL-UHFFFAOYSA-N

>  <fragmenstein_mode>  (74) 
['expansion']

>  <ref_pdb>  (74) 
d0472a

>  <HIPPO Pose ID>  (74) 
47656

>  <distance_score>  (74) 
0.895092

>  <original ID>  (74) 
HBBMJTRCBIBKHL-UHFFFAOYSA-N

>  <ref_mols>  (74) 
d0264a,d0472a

>  <SLURM_JOB_NAME>  (74) 
BulkDock.place:Flavi_NS5_RdRp:RdRp_knitwork_primer_grip_n_pocket_impure_split4000_batch004

>  <fragmenstein_runtime>  (74) 
[8.739930868148804]

>  <fragmenstein_error>  (74) 
['']

>  <energy_score>  (74) 
-59.934308

>  <inchikey>  (74) 
HBBMJTRCBIBKHL-UHFFFAOYSA-N

>  <SLURM_JOB_ID>  (74) 
211036

>  <scratch_subdir>  (74) 
['/opt/xchem-fragalysis-2/maxwin/BulkDock/SCRATCH/211036/C10633-P42']

$$$$
47661
     RDKit          3D

 17 18  0  0  0  0  0  0  0  0999 V2000
  -16.7253  -47.7521  -20.4976 O   0  0  0  0  0  0  0  0  0  0  0  0
  -17.6447  -47.1022  -20.9761 C   0  0  0  0  0  0  0  0  0  0  0  0
  -18.1805  -47.4126  -22.1697 O   0  0  0  0  0  0  0  0  0  0  0  0
  -18.3781  -46.0095  -20.4060 C   0  0  0  0  0  0  0  0  0  0  0  0
  -18.6286  -45.7229  -19.0757 C   0  0  0  0  0  0  0  0  0  0  0  0
  -19.5422  -44.6364  -19.0378 C   0  0  0  0  0  0  0  0  0  0  0  0
  -20.2203  -43.9664  -17.5995 S   0  0  0  0  0  0  0  0  0  0  0  0
  -21.2790  -43.0907  -18.0444 O   0  0  0  0  0  0  0  0  0  0  0  0
  -19.0611  -43.4536  -16.9010 O   0  0  0  0  0  0  0  0  0  0  0  0
  -20.8162  -45.2204  -16.6763 N   0  0  0  0  0  0  0  0  0  0  0  0
  -22.0325  -45.8816  -16.8386 C   0  0  0  0  0  0  0  0  0  0  0  0
  -22.4473  -47.0015  -16.0829 C   0  0  0  0  0  0  0  0  0  0  0  0
  -23.6754  -47.4109  -16.4020 N   0  0  0  0  0  0  0  0  0  0  0  0
  -24.0821  -46.5590  -17.4191 O   0  0  0  0  0  0  0  0  0  0  0  0
  -23.0989  -45.6549  -17.6713 C   0  0  0  0  0  0  0  0  0  0  0  0
  -19.7692  -44.2338  -20.3368 C   0  0  0  0  0  0  0  0  0  0  0  0
  -19.0404  -45.0561  -21.1508 N   0  0  0  0  0  0  0  0  0  0  0  0
  1  2  2  0
  2  3  1  0
  2  4  1  0
  4  5  2  0
  5  6  1  0
  6  7  1  0
  7  8  2  0
  7  9  2  0
  7 10  1  0
 10 11  1  0
 11 12  1  0
 12 13  2  0
 13 14  1  0
 14 15  1  0
  6 16  2  0
 16 17  1  0
 17  4  1  0
 15 11  2  0
M  END
>  <csv_name>  (75) 
RdRp_knitwork_primer_grip_n_pocket_impure_split4000_batch004.csv

>  <exports>  (75) 
['/opt/xchem-fragalysis-2/maxwin/BulkDock/OUTPUTS/RdRp_knitwork_primer_grip_n_pocket_impure_split4000_batch004_211036.sdf']

>  <original SMILES>  (75) 
O=C(O)c1cc(S(=O)(=O)Nc2cnoc2)c[nH]1

>  <tags>  (75) 
['Fragmenstein placed']

>  <alias>  (75) 
None

>  <fragmenstein_outcome>  (75) 
['acceptable']

>  <HIPPO Compound ID>  (75) 
10645

>  <name>  (75) 
JEMVHVCBWVBDJW-UHFFFAOYSA-N

>  <fragmenstein_mode>  (75) 
['expansion']

>  <ref_pdb>  (75) 
d0264a

>  <HIPPO Pose ID>  (75) 
47661

>  <distance_score>  (75) 
0.875331

>  <original ID>  (75) 
JEMVHVCBWVBDJW-UHFFFAOYSA-N

>  <ref_mols>  (75) 
d0264a,d0472a

>  <SLURM_JOB_NAME>  (75) 
BulkDock.place:Flavi_NS5_RdRp:RdRp_knitwork_primer_grip_n_pocket_impure_split4000_batch004

>  <fragmenstein_runtime>  (75) 
[3.2066526412963867]

>  <fragmenstein_error>  (75) 
['']

>  <energy_score>  (75) 
-53.033344

>  <inchikey>  (75) 
JEMVHVCBWVBDJW-UHFFFAOYSA-N

>  <SLURM_JOB_ID>  (75) 
211036

>  <scratch_subdir>  (75) 
['/opt/xchem-fragalysis-2/maxwin/BulkDock/SCRATCH/211036/C10645-P28']

$$$$
47662
     RDKit          3D

 17 18  0  0  0  0  0  0  0  0999 V2000
  -16.8045  -47.7568  -20.5059 O   0  0  0  0  0  0  0  0  0  0  0  0
  -17.7374  -47.1119  -20.9652 C   0  0  0  0  0  0  0  0  0  0  0  0
  -18.3390  -47.4555  -22.1166 O   0  0  0  0  0  0  0  0  0  0  0  0
  -18.4329  -45.9937  -20.3992 C   0  0  0  0  0  0  0  0  0  0  0  0
  -18.6747  -45.7000  -19.0691 C   0  0  0  0  0  0  0  0  0  0  0  0
  -19.5638  -44.5943  -19.0323 C   0  0  0  0  0  0  0  0  0  0  0  0
  -20.2407  -43.9196  -17.5957 S   0  0  0  0  0  0  0  0  0  0  0  0
  -21.3127  -43.0596  -18.0404 O   0  0  0  0  0  0  0  0  0  0  0  0
  -19.0853  -43.4039  -16.8952 O   0  0  0  0  0  0  0  0  0  0  0  0
  -20.8329  -45.1816  -16.6741 N   0  0  0  0  0  0  0  0  0  0  0  0
  -22.0496  -45.8365  -16.8527 C   0  0  0  0  0  0  0  0  0  0  0  0
  -22.4587  -47.0024  -16.1675 C   0  0  0  0  0  0  0  0  0  0  0  0
  -23.6892  -47.3898  -16.5083 N   0  0  0  0  0  0  0  0  0  0  0  0
  -24.1075  -46.4657  -17.4549 O   0  0  0  0  0  0  0  0  0  0  0  0
  -23.1265  -45.5480  -17.6524 C   0  0  0  0  0  0  0  0  0  0  0  0
  -19.7755  -44.1829  -20.3309 C   0  0  0  0  0  0  0  0  0  0  0  0
  -19.0663  -45.0223  -21.1467 N   0  0  0  0  0  0  0  0  0  0  0  0
  1  2  2  0
  2  3  1  0
  2  4  1  0
  4  5  2  0
  5  6  1  0
  6  7  1  0
  7  8  2  0
  7  9  2  0
  7 10  1  0
 10 11  1  0
 11 12  1  0
 12 13  2  0
 13 14  1  0
 14 15  1  0
  6 16  2  0
 16 17  1  0
 17  4  1  0
 15 11  2  0
M  END
>  <csv_name>  (76) 
RdRp_knitwork_primer_grip_n_pocket_impure_split4000_batch004.csv

>  <exports>  (76) 
['/opt/xchem-fragalysis-2/maxwin/BulkDock/OUTPUTS/RdRp_knitwork_primer_grip_n_pocket_impure_split4000_batch004_211036.sdf']

>  <original SMILES>  (76) 
O=C(O)c1cc(S(=O)(=O)Nc2cnoc2)c[nH]1

>  <tags>  (76) 
['Fragmenstein placed']

>  <alias>  (76) 
None

>  <fragmenstein_outcome>  (76) 
['acceptable']

>  <HIPPO Compound ID>  (76) 
10645

>  <name>  (76) 
JEMVHVCBWVBDJW-UHFFFAOYSA-N

>  <fragmenstein_mode>  (76) 
['expansion']

>  <ref_pdb>  (76) 
d0472a

>  <HIPPO Pose ID>  (76) 
47662

>  <distance_score>  (76) 
0.874807

>  <original ID>  (76) 
JEMVHVCBWVBDJW-UHFFFAOYSA-N

>  <ref_mols>  (76) 
d0264a,d0472a

>  <SLURM_JOB_NAME>  (76) 
BulkDock.place:Flavi_NS5_RdRp:RdRp_knitwork_primer_grip_n_pocket_impure_split4000_batch004

>  <fragmenstein_runtime>  (76) 
[2.3667330741882324]

>  <fragmenstein_error>  (76) 
['']

>  <energy_score>  (76) 
-52.657138

>  <inchikey>  (76) 
JEMVHVCBWVBDJW-UHFFFAOYSA-N

>  <SLURM_JOB_ID>  (76) 
211036

>  <scratch_subdir>  (76) 
['/opt/xchem-fragalysis-2/maxwin/BulkDock/SCRATCH/211036/C10645-P42']

$$$$
47664
     RDKit          3D

 20 21  0  0  0  0  0  0  0  0999 V2000
  -22.9859  -45.2385  -18.3540 C   0  0  0  0  0  0  0  0  0  0  0  0
  -21.8016  -45.8595  -17.6420 C   0  0  1  0  0  0  0  0  0  0  0  0
  -20.9132  -44.8498  -17.0503 N   0  0  0  0  0  0  0  0  0  0  0  0
  -20.1695  -43.7262  -18.0400 S   0  0  0  0  0  0  0  0  0  0  0  0
  -19.0825  -43.1601  -17.2802 O   0  0  0  0  0  0  0  0  0  0  0  0
  -21.1475  -42.8812  -18.6802 O   0  0  0  0  0  0  0  0  0  0  0  0
  -19.3914  -44.5666  -19.3365 C   0  0  0  0  0  0  0  0  0  0  0  0
  -19.4957  -44.2814  -20.6823 C   0  0  0  0  0  0  0  0  0  0  0  0
  -18.7369  -45.1954  -21.3605 N   0  0  0  0  0  0  0  0  0  0  0  0
  -18.2057  -46.1178  -20.4824 C   0  0  0  0  0  0  0  0  0  0  0  0
  -17.4231  -47.2546  -20.8946 C   0  0  0  0  0  0  0  0  0  0  0  0
  -16.3637  -47.6344  -20.4190 O   0  0  0  0  0  0  0  0  0  0  0  0
  -18.0312  -47.9010  -21.9154 O   0  0  0  0  0  0  0  0  0  0  0  0
  -18.5460  -45.7004  -19.2055 C   0  0  0  0  0  0  0  0  0  0  0  0
  -22.3642  -46.7608  -16.5919 C   0  0  0  0  0  0  0  0  0  0  0  0
  -22.9972  -46.2218  -15.4700 C   0  0  0  0  0  0  0  0  0  0  0  0
  -23.6490  -47.0635  -14.6049 C   0  0  0  0  0  0  0  0  0  0  0  0
  -23.6244  -48.4143  -14.8924 C   0  0  0  0  0  0  0  0  0  0  0  0
  -23.0292  -48.9725  -15.9639 N   0  0  0  0  0  0  0  0  0  0  0  0
  -22.4015  -48.1347  -16.7941 C   0  0  0  0  0  0  0  0  0  0  0  0
  2  1  1  1
  2  3  1  0
  3  4  1  0
  4  5  2  0
  4  6  2  0
  4  7  1  0
  7  8  2  0
  8  9  1  0
  9 10  1  0
 10 11  1  0
 11 12  2  0
 11 13  1  0
 10 14  2  0
  2 15  1  0
 15 16  2  0
 16 17  1  0
 17 18  2  0
 18 19  1  0
 19 20  2  0
 14  7  1  0
 20 15  1  0
M  END
>  <csv_name>  (77) 
RdRp_knitwork_primer_grip_n_pocket_impure_split4000_batch004.csv

>  <exports>  (77) 
['/opt/xchem-fragalysis-2/maxwin/BulkDock/OUTPUTS/RdRp_knitwork_primer_grip_n_pocket_impure_split4000_batch004_211036.sdf']

>  <original SMILES>  (77) 
C[C@@H](NS(=O)(=O)c1c[nH]c(C(=O)O)c1)c1cccnc1

>  <tags>  (77) 
['Fragmenstein placed']

>  <alias>  (77) 
None

>  <fragmenstein_outcome>  (77) 
['acceptable']

>  <HIPPO Compound ID>  (77) 
10787

>  <name>  (77) 
CLNJFRJMGBHTHL-MRVPVSSYSA-N

>  <fragmenstein_mode>  (77) 
['expansion']

>  <ref_pdb>  (77) 
d0264a

>  <HIPPO Pose ID>  (77) 
47664

>  <distance_score>  (77) 
0.774746

>  <original ID>  (77) 
CLNJFRJMGBHTHL-MRVPVSSYSA-N

>  <ref_mols>  (77) 
d0264a,d0472a

>  <SLURM_JOB_NAME>  (77) 
BulkDock.place:Flavi_NS5_RdRp:RdRp_knitwork_primer_grip_n_pocket_impure_split4000_batch004

>  <fragmenstein_runtime>  (77) 
[4.898581266403198]

>  <fragmenstein_error>  (77) 
['']

>  <energy_score>  (77) 
-35.895788

>  <inchikey>  (77) 
CLNJFRJMGBHTHL-MRVPVSSYSA-N

>  <SLURM_JOB_ID>  (77) 
211036

>  <scratch_subdir>  (77) 
['/opt/xchem-fragalysis-2/maxwin/BulkDock/SCRATCH/211036/C10787-P28']

$$$$
47713
     RDKit          3D

 23 24  0  0  0  0  0  0  0  0999 V2000
  -19.0623  -35.1252  -24.2753 C   0  0  0  0  0  0  0  0  0  0  0  0
  -19.4707  -36.5513  -24.5736 C   0  0  1  0  0  0  0  0  0  0  0  0
  -20.6509  -36.5012  -25.3881 O   0  0  0  0  0  0  0  0  0  0  0  0
  -18.4291  -37.3578  -25.3081 C   0  0  0  0  0  0  0  0  0  0  0  0
  -18.5619  -37.8155  -26.5441 N   0  0  0  0  0  0  0  0  0  0  0  0
  -17.5417  -38.7215  -26.8025 C   0  0  0  0  0  0  0  0  0  0  0  0
  -16.6717  -38.9628  -25.7602 C   0  0  0  0  0  0  0  0  0  0  0  0
  -15.6198  -40.0155  -25.6114 C   0  0  0  0  0  0  0  0  0  0  0  0
  -16.0397  -40.8509  -24.4753 N   0  0  0  0  0  0  0  0  0  0  0  0
  -15.2785  -42.0828  -24.3021 C   0  0  1  0  0  0  0  0  0  0  0  0
  -14.7709  -42.3134  -22.8578 C   0  0  0  0  0  0  0  0  0  0  0  0
  -15.7672  -42.4952  -21.7048 C   0  0  0  0  0  0  0  0  0  0  0  0
  -16.5450  -41.2541  -21.3371 C   0  0  0  0  0  0  0  0  0  0  0  0
  -17.9405  -41.2274  -21.4545 C   0  0  0  0  0  0  0  0  0  0  0  0
  -18.6592  -40.0749  -21.1321 C   0  0  0  0  0  0  0  0  0  0  0  0
  -17.9927  -38.9401  -20.6757 C   0  0  0  0  0  0  0  0  0  0  0  0
  -16.6069  -38.9591  -20.5357 C   0  0  0  0  0  0  0  0  0  0  0  0
  -15.8870  -40.1105  -20.8600 C   0  0  0  0  0  0  0  0  0  0  0  0
  -16.0923  -43.2526  -24.8449 C   0  0  0  0  0  0  0  0  0  0  0  0
  -17.4629  -43.4437  -24.2495 C   0  0  0  0  0  0  0  0  0  0  0  0
  -17.8036  -44.4251  -23.6077 O   0  0  0  0  0  0  0  0  0  0  0  0
  -18.3099  -42.4356  -24.5306 O   0  0  0  0  0  0  0  0  0  0  0  0
  -17.0258  -37.8863  -24.4698 S   0  0  0  0  0  0  0  0  0  0  0  0
  2  1  1  6
  2  3  1  0
  2  4  1  0
  4  5  2  0
  5  6  1  0
  6  7  2  0
  7  8  1  0
  8  9  1  0
  9 10  1  0
 10 11  1  1
 11 12  1  0
 12 13  1  0
 13 14  2  0
 14 15  1  0
 15 16  2  0
 16 17  1  0
 17 18  2  0
 10 19  1  0
 19 20  1  0
 20 21  2  0
 20 22  1  0
  7 23  1  0
 23  4  1  0
 18 13  1  0
M  END
>  <csv_name>  (78) 
RdRp_knitwork_primer_grip_n_pocket_impure_split4000_batch005.csv

>  <exports>  (78) 
['/opt/xchem-fragalysis-2/maxwin/BulkDock/OUTPUTS/RdRp_knitwork_primer_grip_n_pocket_impure_split4000_batch005_211037.sdf']

>  <original SMILES>  (78) 
C[C@@H](O)c1ncc(CN[C@@H](CCc2ccccc2)CC(=O)O)s1

>  <tags>  (78) 
['Fragmenstein placed']

>  <alias>  (78) 
None

>  <fragmenstein_outcome>  (78) 
['acceptable']

>  <HIPPO Compound ID>  (78) 
14066

>  <name>  (78) 
KXKSLXFPGVFZSD-OCCSQVGLSA-N

>  <fragmenstein_mode>  (78) 
['expansion']

>  <ref_pdb>  (78) 
d0472a

>  <HIPPO Pose ID>  (78) 
47713

>  <distance_score>  (78) 
0.860995

>  <original ID>  (78) 
KXKSLXFPGVFZSD-OCCSQVGLSA-N

>  <ref_mols>  (78) 
d0264a,d0472a,d0615b

>  <SLURM_JOB_NAME>  (78) 
BulkDock.place:Flavi_NS5_RdRp:RdRp_knitwork_primer_grip_n_pocket_impure_split4000_batch005

>  <fragmenstein_runtime>  (78) 
[5.229903221130371]

>  <fragmenstein_error>  (78) 
['']

>  <energy_score>  (78) 
-93.587887

>  <inchikey>  (78) 
KXKSLXFPGVFZSD-OCCSQVGLSA-N

>  <SLURM_JOB_ID>  (78) 
211037

>  <scratch_subdir>  (78) 
['/opt/xchem-fragalysis-2/maxwin/BulkDock/SCRATCH/211037/C14066-P42']

$$$$
47725
     RDKit          3D

 23 24  0  0  0  0  0  0  0  0999 V2000
  -19.3194  -35.0346  -24.4010 C   0  0  0  0  0  0  0  0  0  0  0  0
  -19.5512  -36.5271  -24.4890 C   0  0  1  0  0  0  0  0  0  0  0  0
  -20.7240  -36.7776  -25.2683 O   0  0  0  0  0  0  0  0  0  0  0  0
  -18.4207  -37.2957  -25.1152 C   0  0  0  0  0  0  0  0  0  0  0  0
  -18.3445  -37.6447  -26.3918 N   0  0  0  0  0  0  0  0  0  0  0  0
  -17.2655  -38.5065  -26.5475 C   0  0  0  0  0  0  0  0  0  0  0  0
  -16.5681  -38.8241  -25.3995 C   0  0  0  0  0  0  0  0  0  0  0  0
  -15.4783  -39.8226  -25.1976 C   0  0  0  0  0  0  0  0  0  0  0  0
  -15.7949  -40.6660  -24.0387 N   0  0  0  0  0  0  0  0  0  0  0  0
  -15.2444  -42.0044  -24.1044 C   0  0  1  0  0  0  0  0  0  0  0  0
  -14.6069  -42.5547  -22.8093 C   0  0  0  0  0  0  0  0  0  0  0  0
  -15.3800  -43.0979  -21.6066 C   0  0  0  0  0  0  0  0  0  0  0  0
  -16.0244  -42.1372  -20.6323 C   0  0  0  0  0  0  0  0  0  0  0  0
  -17.1089  -42.5930  -19.8625 C   0  0  0  0  0  0  0  0  0  0  0  0
  -17.6744  -41.7950  -18.8655 C   0  0  0  0  0  0  0  0  0  0  0  0
  -17.1634  -40.5239  -18.6217 C   0  0  0  0  0  0  0  0  0  0  0  0
  -16.0859  -40.0571  -19.3713 C   0  0  0  0  0  0  0  0  0  0  0  0
  -15.5128  -40.8620  -20.3611 C   0  0  0  0  0  0  0  0  0  0  0  0
  -16.2362  -42.9104  -24.8186 C   0  0  0  0  0  0  0  0  0  0  0  0
  -17.5196  -43.2716  -24.1052 C   0  0  0  0  0  0  0  0  0  0  0  0
  -17.8577  -42.9720  -22.9770 O   0  0  0  0  0  0  0  0  0  0  0  0
  -18.2898  -44.0567  -24.9001 O   0  0  0  0  0  0  0  0  0  0  0  0
  -17.1564  -37.8710  -24.1058 S   0  0  0  0  0  0  0  0  0  0  0  0
  2  1  1  6
  2  3  1  0
  2  4  1  0
  4  5  2  0
  5  6  1  0
  6  7  2  0
  7  8  1  0
  8  9  1  0
  9 10  1  0
 10 11  1  1
 11 12  1  0
 12 13  1  0
 13 14  2  0
 14 15  1  0
 15 16  2  0
 16 17  1  0
 17 18  2  0
 10 19  1  0
 19 20  1  0
 20 21  2  0
 20 22  1  0
  7 23  1  0
 23  4  1  0
 18 13  1  0
M  END
>  <csv_name>  (79) 
RdRp_knitwork_primer_grip_n_pocket_impure_split4000_batch005.csv

>  <exports>  (79) 
['/opt/xchem-fragalysis-2/maxwin/BulkDock/OUTPUTS/RdRp_knitwork_primer_grip_n_pocket_impure_split4000_batch005_211037.sdf']

>  <original SMILES>  (79) 
C[C@@H](O)c1ncc(CN[C@@H](CCc2ccccc2)CC(=O)O)s1

>  <tags>  (79) 
['Fragmenstein placed']

>  <alias>  (79) 
None

>  <fragmenstein_outcome>  (79) 
['acceptable']

>  <HIPPO Compound ID>  (79) 
14066

>  <name>  (79) 
KXKSLXFPGVFZSD-OCCSQVGLSA-N

>  <fragmenstein_mode>  (79) 
['expansion']

>  <ref_pdb>  (79) 
d0615b

>  <HIPPO Pose ID>  (79) 
47725

>  <distance_score>  (79) 
0.775944

>  <original ID>  (79) 
KXKSLXFPGVFZSD-OCCSQVGLSA-N

>  <ref_mols>  (79) 
d0472a,d0615b

>  <SLURM_JOB_NAME>  (79) 
BulkDock.place:Flavi_NS5_RdRp:RdRp_knitwork_primer_grip_n_pocket_impure_split4000_batch005

>  <fragmenstein_runtime>  (79) 
[5.8087921142578125]

>  <fragmenstein_error>  (79) 
['']

>  <energy_score>  (79) 
-69.985337

>  <inchikey>  (79) 
KXKSLXFPGVFZSD-OCCSQVGLSA-N

>  <SLURM_JOB_ID>  (79) 
211037

>  <scratch_subdir>  (79) 
['/opt/xchem-fragalysis-2/maxwin/BulkDock/SCRATCH/211037/C14066-P51']

$$$$
47739
     RDKit          3D

 11 12  0  0  0  0  0  0  0  0999 V2000
  -12.4182  -40.5778  -20.4503 S   0  0  0  0  0  0  0  0  0  0  0  0
  -13.4001  -40.3089  -21.7519 C   0  0  0  0  0  0  0  0  0  0  0  0
  -13.4118  -39.1340  -22.4498 N   0  0  0  0  0  0  0  0  0  0  0  0
  -14.1193  -39.1053  -23.6143 N   0  0  0  0  0  0  0  0  0  0  0  0
  -14.7183  -40.2461  -23.7852 C   0  0  0  0  0  0  0  0  0  0  0  0
  -15.4958  -40.6337  -24.9345 C   0  0  0  0  0  0  0  0  0  0  0  0
  -15.7998  -39.8242  -25.9357 N   0  0  0  0  0  0  0  0  0  0  0  0
  -16.4572  -40.5836  -26.8662 C   0  0  0  0  0  0  0  0  0  0  0  0
  -16.6159  -41.8683  -26.4107 C   0  0  0  0  0  0  0  0  0  0  0  0
  -16.0011  -41.8906  -25.1900 N   0  0  0  0  0  0  0  0  0  0  0  0
  -14.5282  -41.4114  -22.4894 S   0  0  0  0  0  0  0  0  0  0  0  0
  1  2  2  0
  2  3  1  0
  3  4  1  0
  4  5  2  0
  5  6  1  0
  6  7  2  0
  7  8  1  0
  8  9  2  0
  9 10  1  0
  5 11  1  0
 11  2  1  0
 10  6  1  0
M  END
>  <csv_name>  (80) 
RdRp_knitwork_primer_grip_n_pocket_impure_split4000_batch003.csv

>  <exports>  (80) 
['/opt/xchem-fragalysis-2/maxwin/BulkDock/OUTPUTS/RdRp_knitwork_primer_grip_n_pocket_impure_split4000_batch003_211035.sdf']

>  <original SMILES>  (80) 
S=c1[nH]nc(-c2ncc[nH]2)s1

>  <tags>  (80) 
['Fragmenstein placed']

>  <alias>  (80) 
None

>  <fragmenstein_outcome>  (80) 
['acceptable']

>  <HIPPO Compound ID>  (80) 
23452

>  <name>  (80) 
CTCUCIGLJADTCY-UHFFFAOYSA-N

>  <fragmenstein_mode>  (80) 
['expansion']

>  <ref_pdb>  (80) 
d0160a

>  <HIPPO Pose ID>  (80) 
47739

>  <distance_score>  (80) 
0.736448

>  <original ID>  (80) 
CTCUCIGLJADTCY-UHFFFAOYSA-N

>  <ref_mols>  (80) 
d0160a,z0103a

>  <SLURM_JOB_NAME>  (80) 
BulkDock.place:Flavi_NS5_RdRp:RdRp_knitwork_primer_grip_n_pocket_impure_split4000_batch003

>  <fragmenstein_runtime>  (80) 
[0.8712430000305176]

>  <fragmenstein_error>  (80) 
['']

>  <energy_score>  (80) 
-53.778365

>  <inchikey>  (80) 
CTCUCIGLJADTCY-UHFFFAOYSA-N

>  <SLURM_JOB_ID>  (80) 
211035

>  <scratch_subdir>  (80) 
['/opt/xchem-fragalysis-2/maxwin/BulkDock/SCRATCH/211035/C23452-P12']

$$$$
47741
     RDKit          3D

 22 23  0  0  0  0  0  0  0  0999 V2000
  -18.8989  -35.3911  -24.2730 C   0  0  0  0  0  0  0  0  0  0  0  0
  -19.2942  -36.8456  -24.4141 C   0  0  0  0  0  0  0  0  0  0  0  0
  -18.3263  -37.6530  -25.2232 C   0  0  0  0  0  0  0  0  0  0  0  0
  -18.5384  -38.0292  -26.4707 N   0  0  0  0  0  0  0  0  0  0  0  0
  -17.5274  -38.8950  -26.8489 C   0  0  0  0  0  0  0  0  0  0  0  0
  -16.5550  -39.1666  -25.9043 C   0  0  0  0  0  0  0  0  0  0  0  0
  -15.3579  -40.0503  -26.0645 C   0  0  0  0  0  0  0  0  0  0  0  0
  -14.9530  -40.8522  -24.9105 N   0  0  0  0  0  0  0  0  0  0  0  0
  -15.9360  -41.7270  -24.2467 C   0  0  2  0  0  0  0  0  0  0  0  0
  -15.1068  -42.5114  -23.1833 C   0  0  0  0  0  0  0  0  0  0  0  0
  -15.9636  -43.4179  -22.3080 C   0  0  0  0  0  0  0  0  0  0  0  0
  -15.3732  -44.0845  -21.1005 C   0  0  0  0  0  0  0  0  0  0  0  0
  -16.1081  -45.1539  -20.5571 C   0  0  0  0  0  0  0  0  0  0  0  0
  -15.7775  -45.6865  -19.3224 C   0  0  0  0  0  0  0  0  0  0  0  0
  -14.7110  -45.1421  -18.6126 C   0  0  0  0  0  0  0  0  0  0  0  0
  -13.9324  -44.1233  -19.1671 C   0  0  0  0  0  0  0  0  0  0  0  0
  -14.2601  -43.5964  -20.4143 C   0  0  0  0  0  0  0  0  0  0  0  0
  -16.7494  -42.6539  -25.1790 C   0  0  0  0  0  0  0  0  0  0  0  0
  -18.0394  -43.1357  -24.5448 C   0  0  0  0  0  0  0  0  0  0  0  0
  -18.4826  -42.8458  -23.4486 O   0  0  0  0  0  0  0  0  0  0  0  0
  -18.7400  -43.9740  -25.3313 O   0  0  0  0  0  0  0  0  0  0  0  0
  -16.8675  -38.2253  -24.5082 S   0  0  0  0  0  0  0  0  0  0  0  0
  1  2  1  0
  2  3  1  0
  3  4  2  0
  4  5  1  0
  5  6  2  0
  6  7  1  0
  7  8  1  0
  8  9  1  0
  9 10  1  1
 10 11  1  0
 11 12  1  0
 12 13  2  0
 13 14  1  0
 14 15  2  0
 15 16  1  0
 16 17  2  0
  9 18  1  0
 18 19  1  0
 19 20  2  0
 19 21  1  0
  6 22  1  0
 22  3  1  0
 17 12  1  0
M  END
>  <csv_name>  (81) 
RdRp_knitwork_primer_grip_n_pocket_impure_split4000_batch005.csv

>  <exports>  (81) 
['/opt/xchem-fragalysis-2/maxwin/BulkDock/OUTPUTS/RdRp_knitwork_primer_grip_n_pocket_impure_split4000_batch005_211037.sdf']

>  <original SMILES>  (81) 
CCc1ncc(CN[C@H](CCc2ccccc2)CC(=O)O)s1

>  <tags>  (81) 
['Fragmenstein placed']

>  <alias>  (81) 
None

>  <fragmenstein_outcome>  (81) 
['acceptable']

>  <HIPPO Compound ID>  (81) 
14067

>  <name>  (81) 
DBKPJODZOLWIJA-CQSZACIVSA-N

>  <fragmenstein_mode>  (81) 
['expansion']

>  <ref_pdb>  (81) 
d0472a

>  <HIPPO Pose ID>  (81) 
47741

>  <distance_score>  (81) 
0.989365

>  <original ID>  (81) 
DBKPJODZOLWIJA-CQSZACIVSA-N

>  <ref_mols>  (81) 
d0264a,d0472a,d0615b

>  <SLURM_JOB_NAME>  (81) 
BulkDock.place:Flavi_NS5_RdRp:RdRp_knitwork_primer_grip_n_pocket_impure_split4000_batch005

>  <fragmenstein_runtime>  (81) 
[7.451780080795288]

>  <fragmenstein_error>  (81) 
['']

>  <energy_score>  (81) 
-76.031233

>  <inchikey>  (81) 
DBKPJODZOLWIJA-CQSZACIVSA-N

>  <SLURM_JOB_ID>  (81) 
211037

>  <scratch_subdir>  (81) 
['/opt/xchem-fragalysis-2/maxwin/BulkDock/SCRATCH/211037/C14067-P42']

$$$$
47753
     RDKit          3D

 22 23  0  0  0  0  0  0  0  0999 V2000
  -18.9406  -35.3739  -24.2870 C   0  0  0  0  0  0  0  0  0  0  0  0
  -19.2053  -36.8586  -24.3477 C   0  0  0  0  0  0  0  0  0  0  0  0
  -18.1913  -37.6308  -25.1335 C   0  0  0  0  0  0  0  0  0  0  0  0
  -18.3146  -37.9281  -26.4140 N   0  0  0  0  0  0  0  0  0  0  0  0
  -17.2664  -38.7566  -26.7721 C   0  0  0  0  0  0  0  0  0  0  0  0
  -16.4043  -39.1497  -25.7673 C   0  0  0  0  0  0  0  0  0  0  0  0
  -15.2435  -40.0813  -25.9144 C   0  0  0  0  0  0  0  0  0  0  0  0
  -14.8125  -40.8371  -24.7400 N   0  0  0  0  0  0  0  0  0  0  0  0
  -15.7632  -41.7380  -24.0648 C   0  0  2  0  0  0  0  0  0  0  0  0
  -14.9095  -42.4804  -22.9871 C   0  0  0  0  0  0  0  0  0  0  0  0
  -15.7420  -43.3530  -22.0597 C   0  0  0  0  0  0  0  0  0  0  0  0
  -15.1609  -43.9919  -20.8397 C   0  0  0  0  0  0  0  0  0  0  0  0
  -15.9162  -45.0327  -20.2654 C   0  0  0  0  0  0  0  0  0  0  0  0
  -15.5687  -45.5682  -19.0384 C   0  0  0  0  0  0  0  0  0  0  0  0
  -14.4720  -45.0442  -18.3615 C   0  0  0  0  0  0  0  0  0  0  0  0
  -13.6897  -44.0400  -18.9404 C   0  0  0  0  0  0  0  0  0  0  0  0
  -14.0281  -43.5174  -20.1849 C   0  0  0  0  0  0  0  0  0  0  0  0
  -16.5366  -42.7084  -24.9862 C   0  0  0  0  0  0  0  0  0  0  0  0
  -17.7672  -43.2708  -24.3107 C   0  0  0  0  0  0  0  0  0  0  0  0
  -18.1356  -43.0594  -23.1680 O   0  0  0  0  0  0  0  0  0  0  0  0
  -18.5082  -44.0656  -25.0984 O   0  0  0  0  0  0  0  0  0  0  0  0
  -16.8115  -38.2968  -24.3426 S   0  0  0  0  0  0  0  0  0  0  0  0
  1  2  1  0
  2  3  1  0
  3  4  2  0
  4  5  1  0
  5  6  2  0
  6  7  1  0
  7  8  1  0
  8  9  1  0
  9 10  1  1
 10 11  1  0
 11 12  1  0
 12 13  2  0
 13 14  1  0
 14 15  2  0
 15 16  1  0
 16 17  2  0
  9 18  1  0
 18 19  1  0
 19 20  2  0
 19 21  1  0
  6 22  1  0
 22  3  1  0
 17 12  1  0
M  END
>  <csv_name>  (82) 
RdRp_knitwork_primer_grip_n_pocket_impure_split4000_batch005.csv

>  <exports>  (82) 
['/opt/xchem-fragalysis-2/maxwin/BulkDock/OUTPUTS/RdRp_knitwork_primer_grip_n_pocket_impure_split4000_batch005_211037.sdf']

>  <original SMILES>  (82) 
CCc1ncc(CN[C@H](CCc2ccccc2)CC(=O)O)s1

>  <tags>  (82) 
['Fragmenstein placed']

>  <alias>  (82) 
None

>  <fragmenstein_outcome>  (82) 
['acceptable']

>  <HIPPO Compound ID>  (82) 
14067

>  <name>  (82) 
DBKPJODZOLWIJA-CQSZACIVSA-N

>  <fragmenstein_mode>  (82) 
['expansion']

>  <ref_pdb>  (82) 
d0615b

>  <HIPPO Pose ID>  (82) 
47753

>  <distance_score>  (82) 
0.99014

>  <original ID>  (82) 
DBKPJODZOLWIJA-CQSZACIVSA-N

>  <ref_mols>  (82) 
d0472a,d0615b

>  <SLURM_JOB_NAME>  (82) 
BulkDock.place:Flavi_NS5_RdRp:RdRp_knitwork_primer_grip_n_pocket_impure_split4000_batch005

>  <fragmenstein_runtime>  (82) 
[9.463677644729614]

>  <fragmenstein_error>  (82) 
['']

>  <energy_score>  (82) 
-72.326061

>  <inchikey>  (82) 
DBKPJODZOLWIJA-CQSZACIVSA-N

>  <SLURM_JOB_ID>  (82) 
211037

>  <scratch_subdir>  (82) 
['/opt/xchem-fragalysis-2/maxwin/BulkDock/SCRATCH/211037/C14067-P51']

$$$$
47755
     RDKit          3D

 14 16  0  0  0  0  0  0  0  0999 V2000
  -16.4674  -41.7463  -26.2781 C   0  0  0  0  0  0  0  0  0  0  0  0
  -16.0354  -41.7900  -25.0369 N   0  0  0  0  0  0  0  0  0  0  0  0
  -15.3289  -40.6168  -24.8566 C   0  0  0  0  0  0  0  0  0  0  0  0
  -14.5994  -40.3058  -23.6160 C   0  0  0  0  0  0  0  0  0  0  0  0
  -14.0050  -39.1143  -23.3938 N   0  0  0  0  0  0  0  0  0  0  0  0
  -13.4202  -39.2566  -22.1941 N   0  0  0  0  0  0  0  0  0  0  0  0
  -13.5846  -40.4923  -21.6597 C   0  0  0  0  0  0  0  0  0  0  0  0
  -14.3761  -41.1992  -22.5394 C   0  0  0  0  0  0  0  0  0  0  0  0
  -14.7685  -42.6122  -22.2939 C   0  0  0  0  0  0  0  0  0  0  0  0
  -14.5993  -42.9673  -20.8006 C   0  0  0  0  0  0  0  0  0  0  0  0
  -13.2723  -42.4691  -20.1992 C   0  0  0  0  0  0  0  0  0  0  0  0
  -13.0430  -40.9555  -20.3617 C   0  0  0  0  0  0  0  0  0  0  0  0
  -15.3982  -39.8438  -25.9953 C   0  0  0  0  0  0  0  0  0  0  0  0
  -16.0994  -40.5858  -26.9011 N   0  0  0  0  0  0  0  0  0  0  0  0
  1  2  2  0
  2  3  1  0
  3  4  1  0
  4  5  2  0
  5  6  1  0
  6  7  1  0
  7  8  2  0
  8  9  1  0
  9 10  1  0
 10 11  1  0
 11 12  1  0
  3 13  2  0
 13 14  1  0
 14  1  1  0
  8  4  1  0
 12  7  1  0
M  END
>  <csv_name>  (83) 
RdRp_knitwork_primer_grip_n_pocket_impure_split4000_batch003.csv

>  <exports>  (83) 
['/opt/xchem-fragalysis-2/maxwin/BulkDock/OUTPUTS/RdRp_knitwork_primer_grip_n_pocket_impure_split4000_batch003_211035.sdf']

>  <original SMILES>  (83) 
c1nc(-c2n[nH]c3c2CCCC3)c[nH]1

>  <tags>  (83) 
['Fragmenstein placed']

>  <alias>  (83) 
None

>  <fragmenstein_outcome>  (83) 
['acceptable']

>  <HIPPO Compound ID>  (83) 
23454

>  <name>  (83) 
ORGCRSJVVRKQHS-UHFFFAOYSA-N

>  <fragmenstein_mode>  (83) 
['expansion']

>  <ref_pdb>  (83) 
d0160a

>  <HIPPO Pose ID>  (83) 
47755

>  <distance_score>  (83) 
0.927374

>  <original ID>  (83) 
ORGCRSJVVRKQHS-UHFFFAOYSA-N

>  <ref_mols>  (83) 
d0160a,z0103a

>  <SLURM_JOB_NAME>  (83) 
BulkDock.place:Flavi_NS5_RdRp:RdRp_knitwork_primer_grip_n_pocket_impure_split4000_batch003

>  <fragmenstein_runtime>  (83) 
[2.1672892570495605]

>  <fragmenstein_error>  (83) 
['']

>  <energy_score>  (83) 
-46.24067

>  <inchikey>  (83) 
ORGCRSJVVRKQHS-UHFFFAOYSA-N

>  <SLURM_JOB_ID>  (83) 
211035

>  <scratch_subdir>  (83) 
['/opt/xchem-fragalysis-2/maxwin/BulkDock/SCRATCH/211035/C23454-P12']

$$$$
48036
     RDKit          3D

 17 18  0  0  0  0  0  0  0  0999 V2000
  -18.9187  -36.4452  -24.6395 C   0  0  0  0  0  0  0  0  0  0  0  0
  -18.1020  -37.4812  -25.3284 C   0  0  0  0  0  0  0  0  0  0  0  0
  -18.3656  -37.9716  -26.5241 N   0  0  0  0  0  0  0  0  0  0  0  0
  -17.3998  -38.9140  -26.8412 C   0  0  0  0  0  0  0  0  0  0  0  0
  -16.4111  -39.1229  -25.8985 C   0  0  0  0  0  0  0  0  0  0  0  0
  -15.2155  -40.0132  -25.9953 C   0  0  0  0  0  0  0  0  0  0  0  0
  -15.0029  -40.7118  -24.7561 O   0  0  0  0  0  0  0  0  0  0  0  0
  -15.6725  -41.8898  -24.6220 C   0  0  0  0  0  0  0  0  0  0  0  0
  -16.4971  -42.3128  -25.4236 O   0  0  0  0  0  0  0  0  0  0  0  0
  -15.2352  -42.6186  -23.3519 C   0  0  0  0  0  0  0  0  0  0  0  0
  -16.2175  -42.7383  -22.3333 O   0  0  0  0  0  0  0  0  0  0  0  0
  -17.0555  -43.7768  -22.5422 C   0  0  0  0  0  0  0  0  0  0  0  0
  -18.1677  -43.7759  -23.4229 C   0  0  0  0  0  0  0  0  0  0  0  0
  -18.8437  -44.9748  -23.3858 C   0  0  0  0  0  0  0  0  0  0  0  0
  -18.1769  -46.0532  -22.2301 S   0  0  0  0  0  0  0  0  0  0  0  0
  -16.9565  -44.9355  -21.8088 C   0  0  0  0  0  0  0  0  0  0  0  0
  -16.7076  -38.1163  -24.5462 S   0  0  0  0  0  0  0  0  0  0  0  0
  1  2  1  0
  2  3  2  0
  3  4  1  0
  4  5  2  0
  5  6  1  0
  6  7  1  0
  7  8  1  0
  8  9  2  0
  8 10  1  0
 10 11  1  0
 11 12  1  0
 12 13  1  0
 13 14  2  0
 14 15  1  0
 15 16  1  0
  5 17  1  0
 17  2  1  0
 16 12  2  0
M  END
>  <csv_name>  (84) 
RdRp_knitwork_primer_grip_n_pocket_impure_split4000_batch005.csv

>  <exports>  (84) 
['/opt/xchem-fragalysis-2/maxwin/BulkDock/OUTPUTS/RdRp_knitwork_primer_grip_n_pocket_impure_split4000_batch005_211037.sdf']

>  <original SMILES>  (84) 
Cc1ncc(COC(=O)COc2ccsc2)s1

>  <tags>  (84) 
['Fragmenstein placed']

>  <alias>  (84) 
None

>  <fragmenstein_outcome>  (84) 
['acceptable']

>  <HIPPO Compound ID>  (84) 
14548

>  <name>  (84) 
QUOAIKVUVSRACH-UHFFFAOYSA-N

>  <fragmenstein_mode>  (84) 
['expansion']

>  <ref_pdb>  (84) 
d0472a

>  <HIPPO Pose ID>  (84) 
48036

>  <distance_score>  (84) 
0.608901

>  <original ID>  (84) 
QUOAIKVUVSRACH-UHFFFAOYSA-N

>  <ref_mols>  (84) 
d0264a,d0472a,d0615b

>  <SLURM_JOB_NAME>  (84) 
BulkDock.place:Flavi_NS5_RdRp:RdRp_knitwork_primer_grip_n_pocket_impure_split4000_batch005

>  <fragmenstein_runtime>  (84) 
[6.006796360015869]

>  <fragmenstein_error>  (84) 
['']

>  <energy_score>  (84) 
-100.725938

>  <inchikey>  (84) 
QUOAIKVUVSRACH-UHFFFAOYSA-N

>  <SLURM_JOB_ID>  (84) 
211037

>  <scratch_subdir>  (84) 
['/opt/xchem-fragalysis-2/maxwin/BulkDock/SCRATCH/211037/C14548-P42']

$$$$
48042
     RDKit          3D

 17 18  0  0  0  0  0  0  0  0999 V2000
  -18.9534  -36.5203  -24.5725 C   0  0  0  0  0  0  0  0  0  0  0  0
  -18.0842  -37.5169  -25.2556 C   0  0  0  0  0  0  0  0  0  0  0  0
  -18.2424  -37.9192  -26.5023 N   0  0  0  0  0  0  0  0  0  0  0  0
  -17.2192  -38.7980  -26.8133 C   0  0  0  0  0  0  0  0  0  0  0  0
  -16.3346  -39.1043  -25.8010 C   0  0  0  0  0  0  0  0  0  0  0  0
  -15.1486  -40.0045  -25.8821 C   0  0  0  0  0  0  0  0  0  0  0  0
  -14.9507  -40.6856  -24.6352 O   0  0  0  0  0  0  0  0  0  0  0  0
  -15.5290  -41.9126  -24.5473 C   0  0  0  0  0  0  0  0  0  0  0  0
  -16.2755  -42.3922  -25.3924 O   0  0  0  0  0  0  0  0  0  0  0  0
  -15.1079  -42.6136  -23.2593 C   0  0  0  0  0  0  0  0  0  0  0  0
  -16.0214  -42.5600  -22.1784 O   0  0  0  0  0  0  0  0  0  0  0  0
  -16.9447  -43.5400  -22.2292 C   0  0  0  0  0  0  0  0  0  0  0  0
  -17.9261  -43.7109  -23.2296 C   0  0  0  0  0  0  0  0  0  0  0  0
  -18.7603  -44.7639  -22.9462 C   0  0  0  0  0  0  0  0  0  0  0  0
  -18.3765  -45.5084  -21.4534 S   0  0  0  0  0  0  0  0  0  0  0  0
  -17.0697  -44.4423  -21.2005 C   0  0  0  0  0  0  0  0  0  0  0  0
  -16.7635  -38.2185  -24.4028 S   0  0  0  0  0  0  0  0  0  0  0  0
  1  2  1  0
  2  3  2  0
  3  4  1  0
  4  5  2  0
  5  6  1  0
  6  7  1  0
  7  8  1  0
  8  9  2  0
  8 10  1  0
 10 11  1  0
 11 12  1  0
 12 13  1  0
 13 14  2  0
 14 15  1  0
 15 16  1  0
  5 17  1  0
 17  2  1  0
 16 12  2  0
M  END
>  <csv_name>  (85) 
RdRp_knitwork_primer_grip_n_pocket_impure_split4000_batch005.csv

>  <exports>  (85) 
['/opt/xchem-fragalysis-2/maxwin/BulkDock/OUTPUTS/RdRp_knitwork_primer_grip_n_pocket_impure_split4000_batch005_211037.sdf']

>  <original SMILES>  (85) 
Cc1ncc(COC(=O)COc2ccsc2)s1

>  <tags>  (85) 
['Fragmenstein placed']

>  <alias>  (85) 
None

>  <fragmenstein_outcome>  (85) 
['acceptable']

>  <HIPPO Compound ID>  (85) 
14548

>  <name>  (85) 
QUOAIKVUVSRACH-UHFFFAOYSA-N

>  <fragmenstein_mode>  (85) 
['expansion']

>  <ref_pdb>  (85) 
d0615b

>  <HIPPO Pose ID>  (85) 
48042

>  <distance_score>  (85) 
0.850919

>  <original ID>  (85) 
QUOAIKVUVSRACH-UHFFFAOYSA-N

>  <ref_mols>  (85) 
d0472a,d0615b

>  <SLURM_JOB_NAME>  (85) 
BulkDock.place:Flavi_NS5_RdRp:RdRp_knitwork_primer_grip_n_pocket_impure_split4000_batch005

>  <fragmenstein_runtime>  (85) 
[5.889624834060669]

>  <fragmenstein_error>  (85) 
['']

>  <energy_score>  (85) 
-100.070865

>  <inchikey>  (85) 
QUOAIKVUVSRACH-UHFFFAOYSA-N

>  <SLURM_JOB_ID>  (85) 
211037

>  <scratch_subdir>  (85) 
['/opt/xchem-fragalysis-2/maxwin/BulkDock/SCRATCH/211037/C14548-P51']

$$$$
48047
     RDKit          3D

 17 18  0  0  0  0  0  0  0  0999 V2000
  -18.0019  -40.0350  -27.3015 C   0  0  0  0  0  0  0  0  0  0  0  0
  -17.5512  -39.0630  -26.2858 C   0  0  0  0  0  0  0  0  0  0  0  0
  -18.3826  -37.9953  -25.9777 N   0  0  0  0  0  0  0  0  0  0  0  0
  -17.8554  -37.3243  -24.9766 C   0  0  0  0  0  0  0  0  0  0  0  0
  -16.3633  -37.9086  -24.3718 S   0  0  0  0  0  0  0  0  0  0  0  0
  -16.3535  -39.1113  -25.5906 C   0  0  0  0  0  0  0  0  0  0  0  0
  -15.1815  -40.0165  -25.7889 C   0  0  0  0  0  0  0  0  0  0  0  0
  -14.9488  -40.7662  -24.5875 O   0  0  0  0  0  0  0  0  0  0  0  0
  -15.5910  -41.9635  -24.5124 C   0  0  0  0  0  0  0  0  0  0  0  0
  -16.3858  -42.3807  -25.3466 O   0  0  0  0  0  0  0  0  0  0  0  0
  -15.1782  -42.7163  -23.2520 C   0  0  0  0  0  0  0  0  0  0  0  0
  -16.1804  -42.8090  -22.2498 O   0  0  0  0  0  0  0  0  0  0  0  0
  -17.0387  -43.8263  -22.4779 C   0  0  0  0  0  0  0  0  0  0  0  0
  -18.1419  -43.7906  -23.3693 C   0  0  0  0  0  0  0  0  0  0  0  0
  -18.8370  -44.9790  -23.3597 C   0  0  0  0  0  0  0  0  0  0  0  0
  -18.1959  -46.0894  -22.2194 S   0  0  0  0  0  0  0  0  0  0  0  0
  -16.9650  -44.9984  -21.7637 C   0  0  0  0  0  0  0  0  0  0  0  0
  1  2  1  0
  2  3  1  0
  3  4  2  0
  4  5  1  0
  5  6  1  0
  6  7  1  0
  7  8  1  0
  8  9  1  0
  9 10  2  0
  9 11  1  0
 11 12  1  0
 12 13  1  0
 13 14  1  0
 14 15  2  0
 15 16  1  0
 16 17  1  0
  6  2  2  0
 17 13  2  0
M  END
>  <csv_name>  (86) 
RdRp_knitwork_primer_grip_n_pocket_impure_split4000_batch005.csv

>  <exports>  (86) 
['/opt/xchem-fragalysis-2/maxwin/BulkDock/OUTPUTS/RdRp_knitwork_primer_grip_n_pocket_impure_split4000_batch005_211037.sdf']

>  <original SMILES>  (86) 
Cc1ncsc1COC(=O)COc1ccsc1

>  <tags>  (86) 
['Fragmenstein placed']

>  <alias>  (86) 
None

>  <fragmenstein_outcome>  (86) 
['acceptable']

>  <HIPPO Compound ID>  (86) 
14551

>  <name>  (86) 
CSVFDYSBDWPCIW-UHFFFAOYSA-N

>  <fragmenstein_mode>  (86) 
['expansion']

>  <ref_pdb>  (86) 
d0472a

>  <HIPPO Pose ID>  (86) 
48047

>  <distance_score>  (86) 
0.640285

>  <original ID>  (86) 
CSVFDYSBDWPCIW-UHFFFAOYSA-N

>  <ref_mols>  (86) 
d0264a,d0472a,d0615b

>  <SLURM_JOB_NAME>  (86) 
BulkDock.place:Flavi_NS5_RdRp:RdRp_knitwork_primer_grip_n_pocket_impure_split4000_batch005

>  <fragmenstein_runtime>  (86) 
[5.154470205307007]

>  <fragmenstein_error>  (86) 
['']

>  <energy_score>  (86) 
-224.842712

>  <inchikey>  (86) 
CSVFDYSBDWPCIW-UHFFFAOYSA-N

>  <SLURM_JOB_ID>  (86) 
211037

>  <scratch_subdir>  (86) 
['/opt/xchem-fragalysis-2/maxwin/BulkDock/SCRATCH/211037/C14551-P42']

$$$$
48051
     RDKit          3D

 17 18  0  0  0  0  0  0  0  0999 V2000
  -16.7909  -40.1756  -27.5958 C   0  0  0  0  0  0  0  0  0  0  0  0
  -16.9545  -39.2189  -26.4762 C   0  0  0  0  0  0  0  0  0  0  0  0
  -18.0198  -38.3201  -26.4560 N   0  0  0  0  0  0  0  0  0  0  0  0
  -17.9735  -37.6451  -25.3248 C   0  0  0  0  0  0  0  0  0  0  0  0
  -16.7051  -38.0479  -24.2430 S   0  0  0  0  0  0  0  0  0  0  0  0
  -16.1175  -39.1761  -25.3804 C   0  0  0  0  0  0  0  0  0  0  0  0
  -14.8578  -39.9368  -25.1922 C   0  0  0  0  0  0  0  0  0  0  0  0
  -14.9360  -40.7593  -24.0287 O   0  0  0  0  0  0  0  0  0  0  0  0
  -15.3703  -42.0265  -24.2386 C   0  0  0  0  0  0  0  0  0  0  0  0
  -15.9462  -42.4236  -25.2434 O   0  0  0  0  0  0  0  0  0  0  0  0
  -15.0233  -42.8911  -23.0422 C   0  0  0  0  0  0  0  0  0  0  0  0
  -15.9211  -42.7644  -21.9564 O   0  0  0  0  0  0  0  0  0  0  0  0
  -16.9326  -43.6475  -22.0473 C   0  0  0  0  0  0  0  0  0  0  0  0
  -17.8897  -43.7203  -23.0858 C   0  0  0  0  0  0  0  0  0  0  0  0
  -18.8012  -44.7202  -22.8503 C   0  0  0  0  0  0  0  0  0  0  0  0
  -18.4942  -45.5435  -21.3789 S   0  0  0  0  0  0  0  0  0  0  0  0
  -17.1428  -44.5662  -21.0494 C   0  0  0  0  0  0  0  0  0  0  0  0
  1  2  1  0
  2  3  1  0
  3  4  2  0
  4  5  1  0
  5  6  1  0
  6  7  1  0
  7  8  1  0
  8  9  1  0
  9 10  2  0
  9 11  1  0
 11 12  1  0
 12 13  1  0
 13 14  1  0
 14 15  2  0
 15 16  1  0
 16 17  1  0
  6  2  2  0
 17 13  2  0
M  END
>  <csv_name>  (87) 
RdRp_knitwork_primer_grip_n_pocket_impure_split4000_batch005.csv

>  <exports>  (87) 
['/opt/xchem-fragalysis-2/maxwin/BulkDock/OUTPUTS/RdRp_knitwork_primer_grip_n_pocket_impure_split4000_batch005_211037.sdf']

>  <original SMILES>  (87) 
Cc1ncsc1COC(=O)COc1ccsc1

>  <tags>  (87) 
['Fragmenstein placed']

>  <alias>  (87) 
None

>  <fragmenstein_outcome>  (87) 
['acceptable']

>  <HIPPO Compound ID>  (87) 
14551

>  <name>  (87) 
CSVFDYSBDWPCIW-UHFFFAOYSA-N

>  <fragmenstein_mode>  (87) 
['expansion']

>  <ref_pdb>  (87) 
d0615b

>  <HIPPO Pose ID>  (87) 
48051

>  <distance_score>  (87) 
0.960379

>  <original ID>  (87) 
CSVFDYSBDWPCIW-UHFFFAOYSA-N

>  <ref_mols>  (87) 
d0472a,d0615b

>  <SLURM_JOB_NAME>  (87) 
BulkDock.place:Flavi_NS5_RdRp:RdRp_knitwork_primer_grip_n_pocket_impure_split4000_batch005

>  <fragmenstein_runtime>  (87) 
[5.989177465438843]

>  <fragmenstein_error>  (87) 
['']

>  <energy_score>  (87) 
-223.288689

>  <inchikey>  (87) 
CSVFDYSBDWPCIW-UHFFFAOYSA-N

>  <SLURM_JOB_ID>  (87) 
211037

>  <scratch_subdir>  (87) 
['/opt/xchem-fragalysis-2/maxwin/BulkDock/SCRATCH/211037/C14551-P51']

$$$$
48201
     RDKit          3D

 11 11  0  0  0  0  0  0  0  0999 V2000
  -16.8551  -44.4612  -22.5458 C   0  0  0  0  0  0  0  0  0  0  0  0
  -16.0734  -45.0842  -21.4944 N   0  0  0  0  0  0  0  0  0  0  0  0
  -14.8170  -44.4233  -21.2048 C   0  0  0  0  0  0  0  0  0  0  0  0
  -16.4283  -46.2202  -20.7760 C   0  0  0  0  0  0  0  0  0  0  0  0
  -15.6518  -46.7962  -20.0060 O   0  0  0  0  0  0  0  0  0  0  0  0
  -17.8040  -46.7993  -21.0409 C   0  0  0  0  0  0  0  0  0  0  0  0
  -18.7835  -45.9444  -20.2869 C   0  0  0  0  0  0  0  0  0  0  0  0
  -19.1040  -45.9264  -18.9415 C   0  0  0  0  0  0  0  0  0  0  0  0
  -20.0123  -44.8638  -18.7254 C   0  0  0  0  0  0  0  0  0  0  0  0
  -20.2226  -44.2548  -19.9389 C   0  0  0  0  0  0  0  0  0  0  0  0
  -19.5028  -44.9351  -20.8799 N   0  0  0  0  0  0  0  0  0  0  0  0
  1  2  1  0
  2  3  1  0
  2  4  1  0
  4  5  2  0
  4  6  1  0
  6  7  1  0
  7  8  2  0
  8  9  1  0
  9 10  2  0
 10 11  1  0
 11  7  1  0
M  END
>  <csv_name>  (88) 
RdRp_knitwork_primer_grip_n_pocket_impure_split4000_batch004.csv

>  <exports>  (88) 
['/opt/xchem-fragalysis-2/maxwin/BulkDock/OUTPUTS/RdRp_knitwork_primer_grip_n_pocket_impure_split4000_batch004_211036.sdf']

>  <original SMILES>  (88) 
CN(C)C(=O)Cc1ccc[nH]1

>  <tags>  (88) 
['Fragmenstein placed']

>  <alias>  (88) 
None

>  <fragmenstein_outcome>  (88) 
['acceptable']

>  <HIPPO Compound ID>  (88) 
13579

>  <name>  (88) 
SKUOFWMCGIFHTF-UHFFFAOYSA-N

>  <fragmenstein_mode>  (88) 
['expansion']

>  <ref_pdb>  (88) 
d0264a

>  <HIPPO Pose ID>  (88) 
48201

>  <distance_score>  (88) 
0.942885

>  <original ID>  (88) 
SKUOFWMCGIFHTF-UHFFFAOYSA-N

>  <ref_mols>  (88) 
d0264a,d0472a

>  <SLURM_JOB_NAME>  (88) 
BulkDock.place:Flavi_NS5_RdRp:RdRp_knitwork_primer_grip_n_pocket_impure_split4000_batch004

>  <fragmenstein_runtime>  (88) 
[2.2524526119232178]

>  <fragmenstein_error>  (88) 
['']

>  <energy_score>  (88) 
-150.331665

>  <inchikey>  (88) 
SKUOFWMCGIFHTF-UHFFFAOYSA-N

>  <SLURM_JOB_ID>  (88) 
211036

>  <scratch_subdir>  (88) 
['/opt/xchem-fragalysis-2/maxwin/BulkDock/SCRATCH/211036/C13579-P28']

$$$$
48203
     RDKit          3D

 11 11  0  0  0  0  0  0  0  0999 V2000
  -16.7882  -44.3498  -22.3878 C   0  0  0  0  0  0  0  0  0  0  0  0
  -16.1047  -45.1327  -21.3736 N   0  0  0  0  0  0  0  0  0  0  0  0
  -14.8209  -44.6017  -20.9694 C   0  0  0  0  0  0  0  0  0  0  0  0
  -16.5789  -46.3039  -20.7913 C   0  0  0  0  0  0  0  0  0  0  0  0
  -15.8931  -47.0163  -20.0510 O   0  0  0  0  0  0  0  0  0  0  0  0
  -17.9813  -46.7339  -21.1792 C   0  0  0  0  0  0  0  0  0  0  0  0
  -18.9282  -45.8564  -20.4056 C   0  0  0  0  0  0  0  0  0  0  0  0
  -19.2542  -45.8578  -19.0612 C   0  0  0  0  0  0  0  0  0  0  0  0
  -20.1359  -44.7774  -18.8267 C   0  0  0  0  0  0  0  0  0  0  0  0
  -20.3271  -44.1381  -20.0284 C   0  0  0  0  0  0  0  0  0  0  0  0
  -19.5967  -44.7992  -20.9774 N   0  0  0  0  0  0  0  0  0  0  0  0
  1  2  1  0
  2  3  1  0
  2  4  1  0
  4  5  2  0
  4  6  1  0
  6  7  1  0
  7  8  2  0
  8  9  1  0
  9 10  2  0
 10 11  1  0
 11  7  1  0
M  END
>  <csv_name>  (89) 
RdRp_knitwork_primer_grip_n_pocket_impure_split4000_batch004.csv

>  <exports>  (89) 
['/opt/xchem-fragalysis-2/maxwin/BulkDock/OUTPUTS/RdRp_knitwork_primer_grip_n_pocket_impure_split4000_batch004_211036.sdf']

>  <original SMILES>  (89) 
CN(C)C(=O)Cc1ccc[nH]1

>  <tags>  (89) 
['Fragmenstein placed']

>  <alias>  (89) 
None

>  <fragmenstein_outcome>  (89) 
['acceptable']

>  <HIPPO Compound ID>  (89) 
13579

>  <name>  (89) 
SKUOFWMCGIFHTF-UHFFFAOYSA-N

>  <fragmenstein_mode>  (89) 
['expansion']

>  <ref_pdb>  (89) 
d0472a

>  <HIPPO Pose ID>  (89) 
48203

>  <distance_score>  (89) 
0.93412

>  <original ID>  (89) 
SKUOFWMCGIFHTF-UHFFFAOYSA-N

>  <ref_mols>  (89) 
d0264a,d0472a

>  <SLURM_JOB_NAME>  (89) 
BulkDock.place:Flavi_NS5_RdRp:RdRp_knitwork_primer_grip_n_pocket_impure_split4000_batch004

>  <fragmenstein_runtime>  (89) 
[1.6672461032867432]

>  <fragmenstein_error>  (89) 
['']

>  <energy_score>  (89) 
-150.615151

>  <inchikey>  (89) 
SKUOFWMCGIFHTF-UHFFFAOYSA-N

>  <SLURM_JOB_ID>  (89) 
211036

>  <scratch_subdir>  (89) 
['/opt/xchem-fragalysis-2/maxwin/BulkDock/SCRATCH/211036/C13579-P42']

$$$$
48642
     RDKit          3D

 15 16  0  0  0  0  0  0  0  0999 V2000
  -18.3431  -44.5831  -22.8972 O   0  0  0  0  0  0  0  0  0  0  0  0
  -17.4108  -44.7322  -22.1061 C   0  0  0  0  0  0  0  0  0  0  0  0
  -16.0006  -44.3076  -22.4963 C   0  0  0  0  0  0  0  0  0  0  0  0
  -15.6127  -42.9849  -21.8306 C   0  0  0  0  0  0  0  0  0  0  0  0
  -14.1248  -42.9162  -21.4381 C   0  0  0  0  0  0  0  0  0  0  0  0
  -13.7565  -41.5107  -20.9364 C   0  0  2  0  0  0  0  0  0  0  0  0
  -13.8776  -40.4348  -22.0030 C   0  0  0  0  0  0  0  0  0  0  0  0
  -12.7824  -39.4631  -21.6452 C   0  0  0  0  0  0  0  0  0  0  0  0
  -11.7254  -40.2597  -21.1120 O   0  0  0  0  0  0  0  0  0  0  0  0
  -12.3237  -41.3737  -20.4336 C   0  0  0  0  0  0  0  0  0  0  0  0
  -17.5670  -45.2659  -20.7576 C   0  0  0  0  0  0  0  0  0  0  0  0
  -18.7332  -45.3977  -20.1489 N   0  0  0  0  0  0  0  0  0  0  0  0
  -18.4614  -45.9176  -18.9105 C   0  0  0  0  0  0  0  0  0  0  0  0
  -17.1082  -46.0706  -18.7360 C   0  0  0  0  0  0  0  0  0  0  0  0
  -16.5519  -45.6618  -19.9143 N   0  0  0  0  0  0  0  0  0  0  0  0
  1  2  2  0
  2  3  1  0
  3  4  1  0
  4  5  1  0
  6  5  1  6
  6  7  1  0
  7  8  1  0
  8  9  1  0
  9 10  1  0
  2 11  1  0
 11 12  2  0
 12 13  1  0
 13 14  2  0
 14 15  1  0
 10  6  1  0
 15 11  1  0
M  END
>  <csv_name>  (90) 
RdRp_knitwork_primer_grip_n_pocket_impure_split4000_batch004.csv

>  <exports>  (90) 
['/opt/xchem-fragalysis-2/maxwin/BulkDock/OUTPUTS/RdRp_knitwork_primer_grip_n_pocket_impure_split4000_batch004_211036.sdf']

>  <original SMILES>  (90) 
O=C(CCC[C@@H]1CCOC1)c1ncc[nH]1

>  <tags>  (90) 
['Fragmenstein placed']

>  <alias>  (90) 
None

>  <fragmenstein_outcome>  (90) 
['acceptable']

>  <HIPPO Compound ID>  (90) 
14104

>  <name>  (90) 
DFLCJGBCJGDRQV-SECBINFHSA-N

>  <fragmenstein_mode>  (90) 
['expansion']

>  <ref_pdb>  (90) 
d0254a

>  <HIPPO Pose ID>  (90) 
48642

>  <distance_score>  (90) 
0.892909

>  <original ID>  (90) 
DFLCJGBCJGDRQV-SECBINFHSA-N

>  <ref_mols>  (90) 
d0254a,z0875c

>  <SLURM_JOB_NAME>  (90) 
BulkDock.place:Flavi_NS5_RdRp:RdRp_knitwork_primer_grip_n_pocket_impure_split4000_batch004

>  <fragmenstein_runtime>  (90) 
[3.4321513175964355]

>  <fragmenstein_error>  (90) 
['']

>  <energy_score>  (90) 
-8.929905

>  <inchikey>  (90) 
DFLCJGBCJGDRQV-SECBINFHSA-N

>  <SLURM_JOB_ID>  (90) 
211036

>  <scratch_subdir>  (90) 
['/opt/xchem-fragalysis-2/maxwin/BulkDock/SCRATCH/211036/C14104-P26']

$$$$
48709
     RDKit          3D

 22 23  0  0  0  0  0  0  0  0999 V2000
  -16.6506  -37.4926  -23.1803 C   0  0  0  0  0  0  0  0  0  0  0  0
  -15.5554  -37.4897  -22.0661 C   0  0  0  0  0  0  0  0  0  0  0  0
  -14.5117  -36.8236  -21.9747 O   0  0  0  0  0  0  0  0  0  0  0  0
  -15.0707  -38.7796  -22.8446 N   0  0  0  0  0  0  0  0  0  0  0  0
  -13.8437  -39.4049  -22.4086 C   0  0  0  0  0  0  0  0  0  0  0  0
  -14.0428  -40.8726  -22.0232 C   0  0  0  0  0  0  0  0  0  0  0  0
  -14.5495  -41.8290  -23.0280 N   0  0  0  0  0  0  0  0  0  0  0  0
  -14.4929  -41.5073  -24.4525 C   0  0  0  0  0  0  0  0  0  0  0  0
  -15.7735  -41.1521  -25.1397 C   0  0  0  0  0  0  0  0  0  0  0  0
  -15.8285  -40.1296  -26.1537 C   0  0  0  0  0  0  0  0  0  0  0  0
  -17.0450  -40.0689  -26.7902 C   0  0  0  0  0  0  0  0  0  0  0  0
  -18.1477  -41.2035  -26.1522 S   0  0  0  0  0  0  0  0  0  0  0  0
  -16.9939  -41.7885  -25.0345 C   0  0  0  0  0  0  0  0  0  0  0  0
  -14.9057  -43.1548  -22.7238 C   0  0  0  0  0  0  0  0  0  0  0  0
  -15.3227  -43.9405  -23.5750 O   0  0  0  0  0  0  0  0  0  0  0  0
  -14.8994  -43.6605  -21.3368 C   0  0  0  0  0  0  0  0  0  0  0  0
  -13.8094  -43.5313  -20.4761 C   0  0  0  0  0  0  0  0  0  0  0  0
  -13.8768  -44.0603  -19.1911 C   0  0  0  0  0  0  0  0  0  0  0  0
  -15.0137  -44.7599  -18.8544 C   0  0  0  0  0  0  0  0  0  0  0  0
  -15.1823  -45.2982  -17.6242 O   0  0  0  0  0  0  0  0  0  0  0  0
  -16.0540  -44.9901  -19.6664 N   0  0  0  0  0  0  0  0  0  0  0  0
  -15.9707  -44.4322  -20.9018 C   0  0  0  0  0  0  0  0  0  0  0  0
  1  2  1  0
  2  3  2  0
  2  4  1  0
  4  5  1  0
  5  6  1  0
  6  7  1  0
  7  8  1  0
  8  9  1  0
  9 10  1  0
 10 11  2  0
 11 12  1  0
 12 13  1  0
  7 14  1  0
 14 15  2  0
 14 16  1  0
 16 17  2  0
 17 18  1  0
 18 19  2  0
 19 20  1  0
 19 21  1  0
 21 22  2  0
 13  9  2  0
 22 16  1  0
M  END
>  <csv_name>  (91) 
RdRp_knitwork_primer_grip_n_pocket_impure_split4000_batch006.csv

>  <exports>  (91) 
['/opt/xchem-fragalysis-2/maxwin/BulkDock/OUTPUTS/RdRp_knitwork_primer_grip_n_pocket_impure_split4000_batch006_211038.sdf']

>  <original SMILES>  (91) 
CC(=O)NCCN(Cc1ccsc1)C(=O)c1ccc(O)nc1

>  <tags>  (91) 
['Fragmenstein placed']

>  <alias>  (91) 
None

>  <fragmenstein_outcome>  (91) 
['acceptable']

>  <HIPPO Compound ID>  (91) 
20791

>  <name>  (91) 
AUPGUSGAJWHHNO-UHFFFAOYSA-N

>  <fragmenstein_mode>  (91) 
['expansion']

>  <ref_pdb>  (91) 
d0160a

>  <HIPPO Pose ID>  (91) 
48709

>  <distance_score>  (91) 
0.986236

>  <original ID>  (91) 
AUPGUSGAJWHHNO-UHFFFAOYSA-N

>  <ref_mols>  (91) 
d0160a,d0472a

>  <SLURM_JOB_NAME>  (91) 
BulkDock.place:Flavi_NS5_RdRp:RdRp_knitwork_primer_grip_n_pocket_impure_split4000_batch006

>  <fragmenstein_runtime>  (91) 
[7.523292541503906]

>  <fragmenstein_error>  (91) 
['']

>  <energy_score>  (91) 
-229.508336

>  <inchikey>  (91) 
AUPGUSGAJWHHNO-UHFFFAOYSA-N

>  <SLURM_JOB_ID>  (91) 
211038

>  <scratch_subdir>  (91) 
['/opt/xchem-fragalysis-2/maxwin/BulkDock/SCRATCH/211038/C20791-P12']

$$$$
48713
     RDKit          3D

 22 23  0  0  0  0  0  0  0  0999 V2000
  -16.6383  -37.4195  -23.1939 C   0  0  0  0  0  0  0  0  0  0  0  0
  -15.5351  -37.4114  -22.0879 C   0  0  0  0  0  0  0  0  0  0  0  0
  -14.4802  -36.7605  -22.0178 O   0  0  0  0  0  0  0  0  0  0  0  0
  -15.0774  -38.7258  -22.8437 N   0  0  0  0  0  0  0  0  0  0  0  0
  -13.8577  -39.3583  -22.4005 C   0  0  0  0  0  0  0  0  0  0  0  0
  -14.0553  -40.8248  -22.0138 C   0  0  0  0  0  0  0  0  0  0  0  0
  -14.5548  -41.7897  -23.0152 N   0  0  0  0  0  0  0  0  0  0  0  0
  -14.5301  -41.4634  -24.4397 C   0  0  0  0  0  0  0  0  0  0  0  0
  -15.8212  -41.1237  -25.1102 C   0  0  0  0  0  0  0  0  0  0  0  0
  -15.8934  -40.1185  -26.1410 C   0  0  0  0  0  0  0  0  0  0  0  0
  -17.1238  -40.0620  -26.7508 C   0  0  0  0  0  0  0  0  0  0  0  0
  -18.2136  -41.1872  -26.0731 S   0  0  0  0  0  0  0  0  0  0  0  0
  -17.0368  -41.7624  -24.9744 C   0  0  0  0  0  0  0  0  0  0  0  0
  -14.8725  -43.1260  -22.7052 C   0  0  0  0  0  0  0  0  0  0  0  0
  -15.2921  -43.9221  -23.5441 O   0  0  0  0  0  0  0  0  0  0  0  0
  -14.8247  -43.6166  -21.3135 C   0  0  0  0  0  0  0  0  0  0  0  0
  -13.6724  -43.4949  -20.5364 C   0  0  0  0  0  0  0  0  0  0  0  0
  -13.6440  -44.0159  -19.2507 C   0  0  0  0  0  0  0  0  0  0  0  0
  -14.7555  -44.7051  -18.8255 C   0  0  0  0  0  0  0  0  0  0  0  0
  -14.7870  -45.2520  -17.5861 O   0  0  0  0  0  0  0  0  0  0  0  0
  -15.8608  -44.9277  -19.5536 N   0  0  0  0  0  0  0  0  0  0  0  0
  -15.8666  -44.3772  -20.7986 C   0  0  0  0  0  0  0  0  0  0  0  0
  1  2  1  0
  2  3  2  0
  2  4  1  0
  4  5  1  0
  5  6  1  0
  6  7  1  0
  7  8  1  0
  8  9  1  0
  9 10  1  0
 10 11  2  0
 11 12  1  0
 12 13  1  0
  7 14  1  0
 14 15  2  0
 14 16  1  0
 16 17  2  0
 17 18  1  0
 18 19  2  0
 19 20  1  0
 19 21  1  0
 21 22  2  0
 13  9  2  0
 22 16  1  0
M  END
>  <csv_name>  (92) 
RdRp_knitwork_primer_grip_n_pocket_impure_split4000_batch006.csv

>  <exports>  (92) 
['/opt/xchem-fragalysis-2/maxwin/BulkDock/OUTPUTS/RdRp_knitwork_primer_grip_n_pocket_impure_split4000_batch006_211038.sdf']

>  <original SMILES>  (92) 
CC(=O)NCCN(Cc1ccsc1)C(=O)c1ccc(O)nc1

>  <tags>  (92) 
['Fragmenstein placed']

>  <alias>  (92) 
None

>  <fragmenstein_outcome>  (92) 
['acceptable']

>  <HIPPO Compound ID>  (92) 
20791

>  <name>  (92) 
AUPGUSGAJWHHNO-UHFFFAOYSA-N

>  <fragmenstein_mode>  (92) 
['expansion']

>  <ref_pdb>  (92) 
d0472a

>  <HIPPO Pose ID>  (92) 
48713

>  <distance_score>  (92) 
0.974767

>  <original ID>  (92) 
AUPGUSGAJWHHNO-UHFFFAOYSA-N

>  <ref_mols>  (92) 
d0160a,d0472a

>  <SLURM_JOB_NAME>  (92) 
BulkDock.place:Flavi_NS5_RdRp:RdRp_knitwork_primer_grip_n_pocket_impure_split4000_batch006

>  <fragmenstein_runtime>  (92) 
[6.8703835010528564]

>  <fragmenstein_error>  (92) 
['']

>  <energy_score>  (92) 
-229.254938

>  <inchikey>  (92) 
AUPGUSGAJWHHNO-UHFFFAOYSA-N

>  <SLURM_JOB_ID>  (92) 
211038

>  <scratch_subdir>  (92) 
['/opt/xchem-fragalysis-2/maxwin/BulkDock/SCRATCH/211038/C20791-P42']

$$$$
48807
     RDKit          3D

 12 13  0  0  0  0  0  0  0  0999 V2000
  -17.0930  -42.4999  -25.0903 C   0  0  0  0  0  0  0  0  0  0  0  0
  -15.7442  -42.3237  -24.8035 C   0  0  0  0  0  0  0  0  0  0  0  0
  -15.2097  -42.8257  -23.6144 C   0  0  0  0  0  0  0  0  0  0  0  0
  -16.0102  -43.4911  -22.6725 C   0  0  0  0  0  0  0  0  0  0  0  0
  -15.4527  -43.9588  -21.3896 C   0  0  0  0  0  0  0  0  0  0  0  0
  -14.4881  -43.2202  -20.6876 C   0  0  0  0  0  0  0  0  0  0  0  0
  -14.0489  -43.6349  -19.4336 C   0  0  0  0  0  0  0  0  0  0  0  0
  -14.5920  -44.7909  -18.9058 C   0  0  0  0  0  0  0  0  0  0  0  0
  -15.4701  -45.5802  -19.5575 N   0  0  0  0  0  0  0  0  0  0  0  0
  -15.8795  -45.1384  -20.7744 C   0  0  0  0  0  0  0  0  0  0  0  0
  -17.3727  -43.6521  -22.9843 C   0  0  0  0  0  0  0  0  0  0  0  0
  -17.9078  -43.1684  -24.1827 C   0  0  0  0  0  0  0  0  0  0  0  0
  1  2  2  0
  2  3  1  0
  3  4  2  0
  4  5  1  0
  5  6  2  0
  6  7  1  0
  7  8  2  0
  8  9  1  0
  9 10  2  0
  4 11  1  0
 11 12  2  0
 12  1  1  0
 10  5  1  0
M  END
>  <csv_name>  (93) 
RdRp_knitwork_primer_grip_n_pocket_impure_split4000_batch005.csv

>  <exports>  (93) 
['/opt/xchem-fragalysis-2/maxwin/BulkDock/OUTPUTS/RdRp_knitwork_primer_grip_n_pocket_impure_split4000_batch005_211037.sdf']

>  <original SMILES>  (93) 
c1ccc(-c2cccnc2)cc1

>  <tags>  (93) 
['Fragmenstein placed']

>  <alias>  (93) 
None

>  <fragmenstein_outcome>  (93) 
['acceptable']

>  <HIPPO Compound ID>  (93) 
20454

>  <name>  (93) 
HJKGBRPNSJADMB-UHFFFAOYSA-N

>  <fragmenstein_mode>  (93) 
['expansion']

>  <ref_pdb>  (93) 
d0472a

>  <HIPPO Pose ID>  (93) 
48807

>  <distance_score>  (93) 
0.701354

>  <original ID>  (93) 
HJKGBRPNSJADMB-UHFFFAOYSA-N

>  <ref_mols>  (93) 
d0472a,d0615b

>  <SLURM_JOB_NAME>  (93) 
BulkDock.place:Flavi_NS5_RdRp:RdRp_knitwork_primer_grip_n_pocket_impure_split4000_batch005

>  <fragmenstein_runtime>  (93) 
[3.6280243396759033]

>  <fragmenstein_error>  (93) 
['']

>  <energy_score>  (93) 
-17.771788

>  <inchikey>  (93) 
HJKGBRPNSJADMB-UHFFFAOYSA-N

>  <SLURM_JOB_ID>  (93) 
211037

>  <scratch_subdir>  (93) 
['/opt/xchem-fragalysis-2/maxwin/BulkDock/SCRATCH/211037/C20454-P42']

$$$$
48814
     RDKit          3D

 12 13  0  0  0  0  0  0  0  0999 V2000
  -16.7502  -42.6474  -24.9292 C   0  0  0  0  0  0  0  0  0  0  0  0
  -15.4897  -42.2955  -24.4780 C   0  0  0  0  0  0  0  0  0  0  0  0
  -15.0739  -42.7031  -23.2105 C   0  0  0  0  0  0  0  0  0  0  0  0
  -15.8965  -43.4499  -22.3503 C   0  0  0  0  0  0  0  0  0  0  0  0
  -15.3994  -43.9094  -21.0337 C   0  0  0  0  0  0  0  0  0  0  0  0
  -14.3700  -43.2489  -20.3438 C   0  0  0  0  0  0  0  0  0  0  0  0
  -13.9176  -43.7118  -19.1101 C   0  0  0  0  0  0  0  0  0  0  0  0
  -14.5189  -44.8338  -18.5754 C   0  0  0  0  0  0  0  0  0  0  0  0
  -15.4931  -45.5280  -19.1939 N   0  0  0  0  0  0  0  0  0  0  0  0
  -15.9038  -45.0460  -20.3956 C   0  0  0  0  0  0  0  0  0  0  0  0
  -17.1877  -43.7477  -22.8163 C   0  0  0  0  0  0  0  0  0  0  0  0
  -17.6026  -43.3655  -24.0964 C   0  0  0  0  0  0  0  0  0  0  0  0
  1  2  2  0
  2  3  1  0
  3  4  2  0
  4  5  1  0
  5  6  2  0
  6  7  1  0
  7  8  2  0
  8  9  1  0
  9 10  2  0
  4 11  1  0
 11 12  2  0
 12  1  1  0
 10  5  1  0
M  END
>  <csv_name>  (94) 
RdRp_knitwork_primer_grip_n_pocket_impure_split4000_batch005.csv

>  <exports>  (94) 
['/opt/xchem-fragalysis-2/maxwin/BulkDock/OUTPUTS/RdRp_knitwork_primer_grip_n_pocket_impure_split4000_batch005_211037.sdf']

>  <original SMILES>  (94) 
c1ccc(-c2cccnc2)cc1

>  <tags>  (94) 
['Fragmenstein placed']

>  <alias>  (94) 
None

>  <fragmenstein_outcome>  (94) 
['acceptable']

>  <HIPPO Compound ID>  (94) 
20454

>  <name>  (94) 
HJKGBRPNSJADMB-UHFFFAOYSA-N

>  <fragmenstein_mode>  (94) 
['expansion']

>  <ref_pdb>  (94) 
d0615b

>  <HIPPO Pose ID>  (94) 
48814

>  <distance_score>  (94) 
0.626794

>  <original ID>  (94) 
HJKGBRPNSJADMB-UHFFFAOYSA-N

>  <ref_mols>  (94) 
d0472a,d0615b

>  <SLURM_JOB_NAME>  (94) 
BulkDock.place:Flavi_NS5_RdRp:RdRp_knitwork_primer_grip_n_pocket_impure_split4000_batch005

>  <fragmenstein_runtime>  (94) 
[3.2950799465179443]

>  <fragmenstein_error>  (94) 
['']

>  <energy_score>  (94) 
-16.992322

>  <inchikey>  (94) 
HJKGBRPNSJADMB-UHFFFAOYSA-N

>  <SLURM_JOB_ID>  (94) 
211037

>  <scratch_subdir>  (94) 
['/opt/xchem-fragalysis-2/maxwin/BulkDock/SCRATCH/211037/C20454-P51']

$$$$
48973
     RDKit          3D

 14 15  0  0  0  0  0  0  0  0999 V2000
  -16.8608  -45.9781  -18.6232 C   0  0  0  0  0  0  0  0  0  0  0  0
  -18.1808  -46.3627  -18.6268 C   0  0  0  0  0  0  0  0  0  0  0  0
  -18.6184  -46.1196  -19.9021 N   0  0  0  0  0  0  0  0  0  0  0  0
  -17.5832  -45.5449  -20.5766 C   0  0  0  0  0  0  0  0  0  0  0  0
  -17.8026  -44.9400  -22.1741 S   0  0  0  0  0  0  0  0  0  0  0  0
  -16.2317  -44.0249  -22.3753 C   0  0  0  0  0  0  0  0  0  0  0  0
  -16.4517  -42.8069  -23.2569 C   0  0  0  0  0  0  0  0  0  0  0  0
  -14.9154  -41.9068  -23.6447 S   0  0  0  0  0  0  0  0  0  0  0  0
  -14.4243  -41.2137  -22.0101 C   0  0  1  0  0  0  0  0  0  0  0  0
  -13.6021  -42.1714  -21.1659 C   0  0  0  0  0  0  0  0  0  0  0  0
  -12.5060  -41.3071  -20.5824 C   0  0  0  0  0  0  0  0  0  0  0  0
  -12.2529  -40.2810  -21.5441 O   0  0  0  0  0  0  0  0  0  0  0  0
  -13.5088  -39.9936  -22.1784 C   0  0  0  0  0  0  0  0  0  0  0  0
  -16.5007  -45.4691  -19.8417 N   0  0  0  0  0  0  0  0  0  0  0  0
  1  2  2  0
  2  3  1  0
  3  4  1  0
  4  5  1  0
  5  6  1  0
  6  7  1  0
  7  8  1  0
  9  8  1  6
  9 10  1  0
 10 11  1  0
 11 12  1  0
 12 13  1  0
  4 14  2  0
 14  1  1  0
 13  9  1  0
M  END
>  <csv_name>  (95) 
RdRp_knitwork_primer_grip_n_pocket_impure_split4000_batch004.csv

>  <exports>  (95) 
['/opt/xchem-fragalysis-2/maxwin/BulkDock/OUTPUTS/RdRp_knitwork_primer_grip_n_pocket_impure_split4000_batch004_211036.sdf']

>  <original SMILES>  (95) 
c1c[nH]c(SCCS[C@H]2CCOC2)n1

>  <tags>  (95) 
['Fragmenstein placed']

>  <alias>  (95) 
None

>  <fragmenstein_outcome>  (95) 
['acceptable']

>  <HIPPO Compound ID>  (95) 
14903

>  <name>  (95) 
XLUOTYOPCNCPHP-QMMMGPOBSA-N

>  <fragmenstein_mode>  (95) 
['expansion']

>  <ref_pdb>  (95) 
d0254a

>  <HIPPO Pose ID>  (95) 
48973

>  <distance_score>  (95) 
0.919486

>  <original ID>  (95) 
XLUOTYOPCNCPHP-QMMMGPOBSA-N

>  <ref_mols>  (95) 
d0254a,z0875c

>  <SLURM_JOB_NAME>  (95) 
BulkDock.place:Flavi_NS5_RdRp:RdRp_knitwork_primer_grip_n_pocket_impure_split4000_batch004

>  <fragmenstein_runtime>  (95) 
[10.152936935424805]

>  <fragmenstein_error>  (95) 
['']

>  <energy_score>  (95) 
-48.680181

>  <inchikey>  (95) 
XLUOTYOPCNCPHP-QMMMGPOBSA-N

>  <SLURM_JOB_ID>  (95) 
211036

>  <scratch_subdir>  (95) 
['/opt/xchem-fragalysis-2/maxwin/BulkDock/SCRATCH/211036/C14903-P26']

$$$$
49042
     RDKit          3D

 22 23  0  0  0  0  0  0  0  0999 V2000
  -19.3927  -45.2225  -19.2710 C   0  0  0  0  0  0  0  0  0  0  0  0
  -19.1871  -43.7821  -18.7221 C   0  0  0  0  0  0  0  0  0  0  0  0
  -18.1626  -43.2310  -18.2957 O   0  0  0  0  0  0  0  0  0  0  0  0
  -19.1555  -43.4379  -20.2846 N   0  0  0  0  0  0  0  0  0  0  0  0
  -18.8527  -42.0569  -20.6408 C   0  0  0  0  0  0  0  0  0  0  0  0
  -17.3682  -41.7683  -20.9087 C   0  0  0  0  0  0  0  0  0  0  0  0
  -16.9122  -42.0746  -22.2841 N   0  0  0  0  0  0  0  0  0  0  0  0
  -16.0724  -43.2525  -22.5771 C   0  0  0  0  0  0  0  0  0  0  0  0
  -15.3442  -43.7790  -21.3802 C   0  0  0  0  0  0  0  0  0  0  0  0
  -14.1317  -43.2255  -20.8507 C   0  0  0  0  0  0  0  0  0  0  0  0
  -13.7336  -43.8363  -19.6816 C   0  0  0  0  0  0  0  0  0  0  0  0
  -14.8179  -45.0703  -19.2047 S   0  0  0  0  0  0  0  0  0  0  0  0
  -15.7516  -44.8610  -20.6205 C   0  0  0  0  0  0  0  0  0  0  0  0
  -17.3371  -41.1723  -23.2668 C   0  0  0  0  0  0  0  0  0  0  0  0
  -18.1652  -40.2876  -23.0377 O   0  0  0  0  0  0  0  0  0  0  0  0
  -16.8865  -41.2710  -24.6619 C   0  0  0  0  0  0  0  0  0  0  0  0
  -17.8243  -41.5380  -25.6525 C   0  0  0  0  0  0  0  0  0  0  0  0
  -17.5880  -41.4099  -26.9850 N   0  0  0  0  0  0  0  0  0  0  0  0
  -16.3696  -40.9343  -27.3283 C   0  0  0  0  0  0  0  0  0  0  0  0
  -15.3761  -40.6194  -26.4125 C   0  0  0  0  0  0  0  0  0  0  0  0
  -15.6380  -40.8056  -25.0603 C   0  0  0  0  0  0  0  0  0  0  0  0
  -14.6782  -40.4974  -24.1365 O   0  0  0  0  0  0  0  0  0  0  0  0
  1  2  1  0
  2  3  2  0
  2  4  1  0
  4  5  1  0
  5  6  1  0
  6  7  1  0
  7  8  1  0
  8  9  1  0
  9 10  1  0
 10 11  2  0
 11 12  1  0
 12 13  1  0
  7 14  1  0
 14 15  2  0
 14 16  1  0
 16 17  2  0
 17 18  1  0
 18 19  2  0
 19 20  1  0
 20 21  2  0
 21 22  1  0
 13  9  2  0
 21 16  1  0
M  END
>  <csv_name>  (96) 
RdRp_knitwork_primer_grip_n_pocket_impure_split4000_batch006.csv

>  <exports>  (96) 
['/opt/xchem-fragalysis-2/maxwin/BulkDock/OUTPUTS/RdRp_knitwork_primer_grip_n_pocket_impure_split4000_batch006_211038.sdf']

>  <original SMILES>  (96) 
CC(=O)NCCN(Cc1ccsc1)C(=O)c1cnccc1O

>  <tags>  (96) 
['Fragmenstein placed']

>  <alias>  (96) 
None

>  <fragmenstein_outcome>  (96) 
['acceptable']

>  <HIPPO Compound ID>  (96) 
21062

>  <name>  (96) 
OEQSKIHPPJZKEO-UHFFFAOYSA-N

>  <fragmenstein_mode>  (96) 
['expansion']

>  <ref_pdb>  (96) 
d0160a

>  <HIPPO Pose ID>  (96) 
49042

>  <distance_score>  (96) 
0.960818

>  <original ID>  (96) 
OEQSKIHPPJZKEO-UHFFFAOYSA-N

>  <ref_mols>  (96) 
d0160a,d0472a

>  <SLURM_JOB_NAME>  (96) 
BulkDock.place:Flavi_NS5_RdRp:RdRp_knitwork_primer_grip_n_pocket_impure_split4000_batch006

>  <fragmenstein_runtime>  (96) 
[5.020039319992065]

>  <fragmenstein_error>  (96) 
['']

>  <energy_score>  (96) 
-31.765939

>  <inchikey>  (96) 
OEQSKIHPPJZKEO-UHFFFAOYSA-N

>  <SLURM_JOB_ID>  (96) 
211038

>  <scratch_subdir>  (96) 
['/opt/xchem-fragalysis-2/maxwin/BulkDock/SCRATCH/211038/C21062-P12']

$$$$
49046
     RDKit          3D

 22 23  0  0  0  0  0  0  0  0999 V2000
  -19.3070  -41.2502  -17.2254 C   0  0  0  0  0  0  0  0  0  0  0  0
  -18.4126  -40.3241  -18.1072 C   0  0  0  0  0  0  0  0  0  0  0  0
  -17.2021  -40.0700  -18.0098 O   0  0  0  0  0  0  0  0  0  0  0  0
  -18.4408  -41.5932  -19.0638 N   0  0  0  0  0  0  0  0  0  0  0  0
  -17.6100  -41.5236  -20.2586 C   0  0  0  0  0  0  0  0  0  0  0  0
  -18.0405  -42.5343  -21.3292 C   0  0  0  0  0  0  0  0  0  0  0  0
  -17.2186  -42.4692  -22.5469 N   0  0  0  0  0  0  0  0  0  0  0  0
  -16.2040  -43.5091  -22.7913 C   0  0  0  0  0  0  0  0  0  0  0  0
  -15.4496  -43.8643  -21.5404 C   0  0  0  0  0  0  0  0  0  0  0  0
  -14.2778  -43.1825  -21.0728 C   0  0  0  0  0  0  0  0  0  0  0  0
  -13.8227  -43.6667  -19.8657 C   0  0  0  0  0  0  0  0  0  0  0  0
  -14.8125  -44.9267  -19.2697 S   0  0  0  0  0  0  0  0  0  0  0  0
  -15.7832  -44.8953  -20.6762 C   0  0  0  0  0  0  0  0  0  0  0  0
  -17.6212  -41.5149  -23.4835 C   0  0  0  0  0  0  0  0  0  0  0  0
  -18.5775  -40.7607  -23.2858 O   0  0  0  0  0  0  0  0  0  0  0  0
  -16.9852  -41.3828  -24.8003 C   0  0  0  0  0  0  0  0  0  0  0  0
  -17.8075  -41.5624  -25.9086 C   0  0  0  0  0  0  0  0  0  0  0  0
  -17.4555  -41.2624  -27.1839 N   0  0  0  0  0  0  0  0  0  0  0  0
  -16.2351  -40.7063  -27.3424 C   0  0  0  0  0  0  0  0  0  0  0  0
  -15.3439  -40.4779  -26.3019 C   0  0  0  0  0  0  0  0  0  0  0  0
  -15.7262  -40.8329  -25.0107 C   0  0  0  0  0  0  0  0  0  0  0  0
  -14.8757  -40.6030  -23.9662 O   0  0  0  0  0  0  0  0  0  0  0  0
  1  2  1  0
  2  3  2  0
  2  4  1  0
  4  5  1  0
  5  6  1  0
  6  7  1  0
  7  8  1  0
  8  9  1  0
  9 10  1  0
 10 11  2  0
 11 12  1  0
 12 13  1  0
  7 14  1  0
 14 15  2  0
 14 16  1  0
 16 17  2  0
 17 18  1  0
 18 19  2  0
 19 20  1  0
 20 21  2  0
 21 22  1  0
 13  9  2  0
 21 16  1  0
M  END
>  <csv_name>  (97) 
RdRp_knitwork_primer_grip_n_pocket_impure_split4000_batch006.csv

>  <exports>  (97) 
['/opt/xchem-fragalysis-2/maxwin/BulkDock/OUTPUTS/RdRp_knitwork_primer_grip_n_pocket_impure_split4000_batch006_211038.sdf']

>  <original SMILES>  (97) 
CC(=O)NCCN(Cc1ccsc1)C(=O)c1cnccc1O

>  <tags>  (97) 
['Fragmenstein placed']

>  <alias>  (97) 
None

>  <fragmenstein_outcome>  (97) 
['acceptable']

>  <HIPPO Compound ID>  (97) 
21062

>  <name>  (97) 
OEQSKIHPPJZKEO-UHFFFAOYSA-N

>  <fragmenstein_mode>  (97) 
['expansion']

>  <ref_pdb>  (97) 
d0472a

>  <HIPPO Pose ID>  (97) 
49046

>  <distance_score>  (97) 
0.929002

>  <original ID>  (97) 
OEQSKIHPPJZKEO-UHFFFAOYSA-N

>  <ref_mols>  (97) 
d0160a,d0472a

>  <SLURM_JOB_NAME>  (97) 
BulkDock.place:Flavi_NS5_RdRp:RdRp_knitwork_primer_grip_n_pocket_impure_split4000_batch006

>  <fragmenstein_runtime>  (97) 
[4.6293511390686035]

>  <fragmenstein_error>  (97) 
['']

>  <energy_score>  (97) 
-32.218139

>  <inchikey>  (97) 
OEQSKIHPPJZKEO-UHFFFAOYSA-N

>  <SLURM_JOB_ID>  (97) 
211038

>  <scratch_subdir>  (97) 
['/opt/xchem-fragalysis-2/maxwin/BulkDock/SCRATCH/211038/C21062-P42']

$$$$
49178
     RDKit          3D

 23 24  0  0  0  0  0  0  0  0999 V2000
  -16.4711  -37.5753  -23.8354 C   0  0  0  0  0  0  0  0  0  0  0  0
  -15.8453  -37.7521  -22.4180 C   0  0  0  0  0  0  0  0  0  0  0  0
  -15.0462  -37.0278  -21.8022 O   0  0  0  0  0  0  0  0  0  0  0  0
  -14.8730  -38.7312  -23.2045 N   0  0  0  0  0  0  0  0  0  0  0  0
  -13.9140  -39.4758  -22.4145 C   0  0  0  0  0  0  0  0  0  0  0  0
  -14.4739  -40.8379  -21.9723 C   0  0  0  0  0  0  0  0  0  0  0  0
  -14.6284  -41.9128  -22.9787 N   0  0  0  0  0  0  0  0  0  0  0  0
  -14.5799  -41.6068  -24.4105 C   0  0  0  0  0  0  0  0  0  0  0  0
  -15.8540  -41.2507  -25.1283 C   0  0  0  0  0  0  0  0  0  0  0  0
  -17.0842  -41.8349  -24.8232 C   0  0  0  0  0  0  0  0  0  0  0  0
  -18.2128  -41.5380  -25.5873 C   0  0  0  0  0  0  0  0  0  0  0  0
  -18.1248  -40.6554  -26.6624 C   0  0  0  0  0  0  0  0  0  0  0  0
  -16.8997  -40.0921  -27.0003 C   0  0  0  0  0  0  0  0  0  0  0  0
  -15.7708  -40.3951  -26.2441 C   0  0  0  0  0  0  0  0  0  0  0  0
  -14.8288  -43.2780  -22.6739 C   0  0  0  0  0  0  0  0  0  0  0  0
  -15.0863  -44.1046  -23.5474 O   0  0  0  0  0  0  0  0  0  0  0  0
  -14.7921  -43.7633  -21.2807 C   0  0  0  0  0  0  0  0  0  0  0  0
  -13.6665  -43.5195  -20.4917 C   0  0  0  0  0  0  0  0  0  0  0  0
  -13.6167  -43.9805  -19.1816 C   0  0  0  0  0  0  0  0  0  0  0  0
  -14.6707  -44.7496  -18.7241 C   0  0  0  0  0  0  0  0  0  0  0  0
  -15.7239  -45.1073  -19.4880 N   0  0  0  0  0  0  0  0  0  0  0  0
  -15.7539  -44.6071  -20.7445 C   0  0  0  0  0  0  0  0  0  0  0  0
  -16.8439  -45.0365  -21.4232 O   0  0  0  0  0  0  0  0  0  0  0  0
  1  2  1  0
  2  3  2  0
  2  4  1  0
  4  5  1  0
  5  6  1  0
  6  7  1  0
  7  8  1  0
  8  9  1  0
  9 10  2  0
 10 11  1  0
 11 12  2  0
 12 13  1  0
 13 14  2  0
  7 15  1  0
 15 16  2  0
 15 17  1  0
 17 18  2  0
 18 19  1  0
 19 20  2  0
 20 21  1  0
 21 22  2  0
 22 23  1  0
 14  9  1  0
 22 17  1  0
M  END
>  <csv_name>  (98) 
RdRp_knitwork_primer_grip_n_pocket_impure_split4000_batch006.csv

>  <exports>  (98) 
['/opt/xchem-fragalysis-2/maxwin/BulkDock/OUTPUTS/RdRp_knitwork_primer_grip_n_pocket_impure_split4000_batch006_211038.sdf']

>  <original SMILES>  (98) 
CC(=O)NCCN(Cc1ccccc1)C(=O)c1cccnc1O

>  <tags>  (98) 
['Fragmenstein placed']

>  <alias>  (98) 
None

>  <fragmenstein_outcome>  (98) 
['acceptable']

>  <HIPPO Compound ID>  (98) 
21106

>  <name>  (98) 
JAASKDYHISXSBC-UHFFFAOYSA-N

>  <fragmenstein_mode>  (98) 
['expansion']

>  <ref_pdb>  (98) 
d0472a

>  <HIPPO Pose ID>  (98) 
49178

>  <distance_score>  (98) 
0.938583

>  <original ID>  (98) 
JAASKDYHISXSBC-UHFFFAOYSA-N

>  <ref_mols>  (98) 
d0160a,d0472a

>  <SLURM_JOB_NAME>  (98) 
BulkDock.place:Flavi_NS5_RdRp:RdRp_knitwork_primer_grip_n_pocket_impure_split4000_batch006

>  <fragmenstein_runtime>  (98) 
[6.059362888336182]

>  <fragmenstein_error>  (98) 
['']

>  <energy_score>  (98) 
-29.239325

>  <inchikey>  (98) 
JAASKDYHISXSBC-UHFFFAOYSA-N

>  <SLURM_JOB_ID>  (98) 
211038

>  <scratch_subdir>  (98) 
['/opt/xchem-fragalysis-2/maxwin/BulkDock/SCRATCH/211038/C21106-P42']

$$$$
49265
     RDKit          3D

 17 18  0  0  0  0  0  0  0  0999 V2000
  -19.9919  -43.6562  -23.3650 C   0  0  0  0  0  0  0  0  0  0  0  0
  -19.2582  -44.2483  -24.5536 C   0  0  0  0  0  0  0  0  0  0  0  0
  -18.4734  -43.2377  -25.2005 O   0  0  0  0  0  0  0  0  0  0  0  0
  -17.2234  -43.0143  -24.6775 C   0  0  0  0  0  0  0  0  0  0  0  0
  -16.7316  -43.7288  -23.8123 O   0  0  0  0  0  0  0  0  0  0  0  0
  -16.6019  -41.8146  -25.2291 C   0  0  0  0  0  0  0  0  0  0  0  0
  -17.2390  -41.1737  -26.3104 N   0  0  0  0  0  0  0  0  0  0  0  0
  -16.6538  -40.0241  -26.5249 C   0  0  0  0  0  0  0  0  0  0  0  0
  -17.3082  -38.8498  -27.1344 C   0  0  0  0  0  0  0  0  0  0  0  0
  -18.1088  -38.0907  -26.0779 C   0  0  0  0  0  0  0  0  0  0  0  0
  -15.1148  -39.8548  -25.8465 S   0  0  0  0  0  0  0  0  0  0  0  0
  -15.5114  -41.1049  -24.7199 C   0  0  0  0  0  0  0  0  0  0  0  0
  -14.7550  -41.1464  -23.5001 C   0  0  0  0  0  0  0  0  0  0  0  0
  -14.5383  -42.0900  -22.5218 C   0  0  0  0  0  0  0  0  0  0  0  0
  -13.7038  -41.4590  -21.5712 C   0  0  0  0  0  0  0  0  0  0  0  0
  -13.4176  -40.1978  -21.9007 N   0  0  0  0  0  0  0  0  0  0  0  0
  -14.0557  -40.0416  -23.0666 N   0  0  0  0  0  0  0  0  0  0  0  0
  1  2  1  0
  2  3  1  0
  3  4  1  0
  4  5  2  0
  4  6  1  0
  6  7  1  0
  7  8  2  0
  8  9  1  0
  9 10  1  0
  8 11  1  0
 11 12  1  0
 12 13  1  0
 13 14  2  0
 14 15  1  0
 15 16  2  0
 16 17  1  0
 12  6  2  0
 17 13  1  0
M  END
>  <csv_name>  (99) 
RdRp_knitwork_primer_grip_n_pocket_impure_split4000_batch001.csv

>  <exports>  (99) 
['/opt/xchem-fragalysis-2/maxwin/BulkDock/OUTPUTS/RdRp_knitwork_primer_grip_n_pocket_impure_split4000_batch001_211033.sdf']

>  <original SMILES>  (99) 
CCOC(=O)c1nc(CC)sc1-c1ccn[nH]1

>  <tags>  (99) 
['Fragmenstein placed']

>  <alias>  (99) 
None

>  <fragmenstein_outcome>  (99) 
['acceptable']

>  <HIPPO Compound ID>  (99) 
12559

>  <name>  (99) 
BNDVWRCIZMHKLO-UHFFFAOYSA-N

>  <fragmenstein_mode>  (99) 
['expansion']

>  <ref_pdb>  (99) 
d0160a

>  <HIPPO Pose ID>  (99) 
49265

>  <distance_score>  (99) 
0.933432

>  <original ID>  (99) 
BNDVWRCIZMHKLO-UHFFFAOYSA-N

>  <ref_mols>  (99) 
d0160a,d0615b

>  <SLURM_JOB_NAME>  (99) 
BulkDock.place:Flavi_NS5_RdRp:RdRp_knitwork_primer_grip_n_pocket_impure_split4000_batch001

>  <fragmenstein_runtime>  (99) 
[2.942963123321533]

>  <fragmenstein_error>  (99) 
['']

>  <energy_score>  (99) 
-262.507063

>  <inchikey>  (99) 
BNDVWRCIZMHKLO-UHFFFAOYSA-N

>  <SLURM_JOB_ID>  (99) 
211033

>  <scratch_subdir>  (99) 
['/opt/xchem-fragalysis-2/maxwin/BulkDock/SCRATCH/211033/C12559-P12']

$$$$
49724
     RDKit          3D

 23 25  0  0  0  0  0  0  0  0999 V2000
  -15.0054  -40.6733  -19.4837 C   0  0  0  0  0  0  0  0  0  0  0  0
  -13.8068  -40.7650  -20.4545 C   0  0  2  0  0  0  0  0  0  0  0  0
  -13.1110  -42.1559  -20.4148 C   0  0  0  0  0  0  0  0  0  0  0  0
  -13.9915  -43.3721  -20.2396 C   0  0  0  0  0  0  0  0  0  0  0  0
  -14.6519  -43.9759  -21.3109 C   0  0  0  0  0  0  0  0  0  0  0  0
  -15.4802  -45.0594  -21.0590 C   0  0  0  0  0  0  0  0  0  0  0  0
  -15.6477  -45.6102  -19.8365 N   0  0  0  0  0  0  0  0  0  0  0  0
  -14.9660  -45.0367  -18.8246 C   0  0  0  0  0  0  0  0  0  0  0  0
  -14.1468  -43.9302  -18.9696 C   0  0  0  0  0  0  0  0  0  0  0  0
  -12.7886  -39.7160  -19.9750 C   0  0  0  0  0  0  0  0  0  0  0  0
  -13.0314  -38.7504  -19.2615 O   0  0  0  0  0  0  0  0  0  0  0  0
  -11.5203  -39.9217  -20.3885 O   0  0  0  0  0  0  0  0  0  0  0  0
  -14.2335  -40.4475  -21.8283 N   0  0  0  0  0  0  0  0  0  0  0  0
  -15.2961  -40.9833  -22.5255 C   0  0  0  0  0  0  0  0  0  0  0  0
  -15.1976  -40.5358  -23.8255 C   0  0  0  0  0  0  0  0  0  0  0  0
  -16.0358  -40.8813  -24.9622 C   0  0  0  0  0  0  0  0  0  0  0  0
  -15.7127  -40.4048  -26.2395 C   0  0  0  0  0  0  0  0  0  0  0  0
  -16.5382  -40.7176  -27.3064 C   0  0  0  0  0  0  0  0  0  0  0  0
  -17.6629  -41.4519  -27.1900 N   0  0  0  0  0  0  0  0  0  0  0  0
  -17.9459  -41.9164  -25.9533 C   0  0  0  0  0  0  0  0  0  0  0  0
  -17.1742  -41.6711  -24.8275 C   0  0  0  0  0  0  0  0  0  0  0  0
  -14.1065  -39.6579  -23.7736 C   0  0  0  0  0  0  0  0  0  0  0  0
  -13.5197  -39.5870  -22.5831 N   0  0  0  0  0  0  0  0  0  0  0  0
  2  1  1  1
  2  3  1  0
  3  4  1  0
  4  5  2  0
  5  6  1  0
  6  7  2  0
  7  8  1  0
  8  9  2  0
  2 10  1  0
 10 11  2  0
 10 12  1  0
  2 13  1  0
 13 14  1  0
 14 15  2  0
 15 16  1  0
 16 17  2  0
 17 18  1  0
 18 19  2  0
 19 20  1  0
 20 21  2  0
 15 22  1  0
 22 23  2  0
  9  4  1  0
 23 13  1  0
 21 16  1  0
M  END
>  <csv_name>  (100) 
RdRp_knitwork_primer_grip_n_pocket_impure_split4000_batch006.csv

>  <exports>  (100) 
['/opt/xchem-fragalysis-2/maxwin/BulkDock/OUTPUTS/RdRp_knitwork_primer_grip_n_pocket_impure_split4000_batch006_211038.sdf']

>  <original SMILES>  (100) 
C[C@](Cc1ccncc1)(C(=O)O)n1cc(-c2ccncc2)cn1

>  <tags>  (100) 
['Fragmenstein placed']

>  <alias>  (100) 
None

>  <fragmenstein_outcome>  (100) 
['acceptable']

>  <HIPPO Compound ID>  (100) 
12589

>  <name>  (100) 
HWILAVGOTLLWEQ-KRWDZBQOSA-N

>  <fragmenstein_mode>  (100) 
['expansion']

>  <ref_pdb>  (100) 
d0160a

>  <HIPPO Pose ID>  (100) 
49724

>  <distance_score>  (100) 
0.83164

>  <original ID>  (100) 
HWILAVGOTLLWEQ-KRWDZBQOSA-N

>  <ref_mols>  (100) 
d0160a,d0472a

>  <SLURM_JOB_NAME>  (100) 
BulkDock.place:Flavi_NS5_RdRp:RdRp_knitwork_primer_grip_n_pocket_impure_split4000_batch006

>  <fragmenstein_runtime>  (100) 
[3.7037193775177]

>  <fragmenstein_error>  (100) 
['']

>  <energy_score>  (100) 
-34.854339

>  <inchikey>  (100) 
HWILAVGOTLLWEQ-KRWDZBQOSA-N

>  <SLURM_JOB_ID>  (100) 
211038

>  <scratch_subdir>  (100) 
['/opt/xchem-fragalysis-2/maxwin/BulkDock/SCRATCH/211038/C12589-P12']

$$$$
49726
     RDKit          3D

 23 25  0  0  0  0  0  0  0  0999 V2000
  -14.6501  -40.6178  -19.5964 C   0  0  0  0  0  0  0  0  0  0  0  0
  -13.5444  -40.9278  -20.6234 C   0  0  2  0  0  0  0  0  0  0  0  0
  -13.1053  -42.4271  -20.6403 C   0  0  0  0  0  0  0  0  0  0  0  0
  -14.0663  -43.4972  -20.1754 C   0  0  0  0  0  0  0  0  0  0  0  0
  -14.8063  -44.2760  -21.0696 C   0  0  0  0  0  0  0  0  0  0  0  0
  -15.6332  -45.2713  -20.5717 C   0  0  0  0  0  0  0  0  0  0  0  0
  -15.7356  -45.5717  -19.2620 N   0  0  0  0  0  0  0  0  0  0  0  0
  -15.0056  -44.8179  -18.4139 C   0  0  0  0  0  0  0  0  0  0  0  0
  -14.1695  -43.7885  -18.8146 C   0  0  0  0  0  0  0  0  0  0  0  0
  -12.2523  -40.1736  -20.2843 C   0  0  0  0  0  0  0  0  0  0  0  0
  -11.2891  -40.0141  -21.0221 O   0  0  0  0  0  0  0  0  0  0  0  0
  -12.1709  -39.7385  -19.0101 O   0  0  0  0  0  0  0  0  0  0  0  0
  -14.0221  -40.4624  -21.9409 N   0  0  0  0  0  0  0  0  0  0  0  0
  -14.7208  -41.1780  -22.8752 C   0  0  0  0  0  0  0  0  0  0  0  0
  -15.0819  -40.3077  -23.8745 C   0  0  0  0  0  0  0  0  0  0  0  0
  -15.8549  -40.6658  -25.0424 C   0  0  0  0  0  0  0  0  0  0  0  0
  -15.6011  -40.0576  -26.2695 C   0  0  0  0  0  0  0  0  0  0  0  0
  -16.3965  -40.4043  -27.3494 C   0  0  0  0  0  0  0  0  0  0  0  0
  -17.4245  -41.2798  -27.2837 N   0  0  0  0  0  0  0  0  0  0  0  0
  -17.6393  -41.8587  -26.0834 C   0  0  0  0  0  0  0  0  0  0  0  0
  -16.8890  -41.5977  -24.9522 C   0  0  0  0  0  0  0  0  0  0  0  0
  -14.5990  -39.0657  -23.4297 C   0  0  0  0  0  0  0  0  0  0  0  0
  -13.9557  -39.1461  -22.2621 N   0  0  0  0  0  0  0  0  0  0  0  0
  2  1  1  1
  2  3  1  0
  3  4  1  0
  4  5  2  0
  5  6  1  0
  6  7  2  0
  7  8  1  0
  8  9  2  0
  2 10  1  0
 10 11  2  0
 10 12  1  0
  2 13  1  0
 13 14  1  0
 14 15  2  0
 15 16  1  0
 16 17  2  0
 17 18  1  0
 18 19  2  0
 19 20  1  0
 20 21  2  0
 15 22  1  0
 22 23  2  0
  9  4  1  0
 23 13  1  0
 21 16  1  0
M  END
>  <csv_name>  (101) 
RdRp_knitwork_primer_grip_n_pocket_impure_split4000_batch006.csv

>  <exports>  (101) 
['/opt/xchem-fragalysis-2/maxwin/BulkDock/OUTPUTS/RdRp_knitwork_primer_grip_n_pocket_impure_split4000_batch006_211038.sdf']

>  <original SMILES>  (101) 
C[C@](Cc1ccncc1)(C(=O)O)n1cc(-c2ccncc2)cn1

>  <tags>  (101) 
['Fragmenstein placed']

>  <alias>  (101) 
None

>  <fragmenstein_outcome>  (101) 
['acceptable']

>  <HIPPO Compound ID>  (101) 
12589

>  <name>  (101) 
HWILAVGOTLLWEQ-KRWDZBQOSA-N

>  <fragmenstein_mode>  (101) 
['expansion']

>  <ref_pdb>  (101) 
d0472a

>  <HIPPO Pose ID>  (101) 
49726

>  <distance_score>  (101) 
0.709337

>  <original ID>  (101) 
HWILAVGOTLLWEQ-KRWDZBQOSA-N

>  <ref_mols>  (101) 
d0160a,d0472a

>  <SLURM_JOB_NAME>  (101) 
BulkDock.place:Flavi_NS5_RdRp:RdRp_knitwork_primer_grip_n_pocket_impure_split4000_batch006

>  <fragmenstein_runtime>  (101) 
[4.272943496704102]

>  <fragmenstein_error>  (101) 
['']

>  <energy_score>  (101) 
-32.678708

>  <inchikey>  (101) 
HWILAVGOTLLWEQ-KRWDZBQOSA-N

>  <SLURM_JOB_ID>  (101) 
211038

>  <scratch_subdir>  (101) 
['/opt/xchem-fragalysis-2/maxwin/BulkDock/SCRATCH/211038/C12589-P42']

$$$$
49894
     RDKit          3D

 13 14  0  0  0  0  0  0  0  0999 V2000
  -17.9862  -38.8846  -26.7463 S   0  0  0  0  0  0  0  0  0  0  0  0
  -16.9737  -40.0522  -26.1273 C   0  0  0  0  0  0  0  0  0  0  0  0
  -15.8806  -39.7509  -25.1914 C   0  0  0  0  0  0  0  0  0  0  0  0
  -15.3091  -40.7412  -24.4953 C   0  0  0  0  0  0  0  0  0  0  0  0
  -14.4153  -40.4486  -23.3622 C   0  0  0  0  0  0  0  0  0  0  0  0
  -14.1826  -41.3783  -22.3524 C   0  0  0  0  0  0  0  0  0  0  0  0
  -13.3377  -41.0356  -21.2987 C   0  0  0  0  0  0  0  0  0  0  0  0
  -12.7655  -39.7726  -21.2610 C   0  0  0  0  0  0  0  0  0  0  0  0
  -13.0676  -38.8916  -22.2767 C   0  0  0  0  0  0  0  0  0  0  0  0
  -13.8743  -39.1991  -23.3148 N   0  0  0  0  0  0  0  0  0  0  0  0
  -15.6926  -42.1083  -24.9212 C   0  0  0  0  0  0  0  0  0  0  0  0
  -16.5918  -42.4176  -25.8026 N   0  0  0  0  0  0  0  0  0  0  0  0
  -17.2133  -41.3706  -26.4048 N   0  0  0  0  0  0  0  0  0  0  0  0
  1  2  2  0
  2  3  1  0
  3  4  2  0
  4  5  1  0
  5  6  2  0
  6  7  1  0
  7  8  2  0
  8  9  1  0
  9 10  2  0
  4 11  1  0
 11 12  2  0
 12 13  1  0
 13  2  1  0
 10  5  1  0
M  END
>  <csv_name>  (102) 
RdRp_knitwork_primer_grip_n_pocket_impure_split4000_batch001.csv

>  <exports>  (102) 
['/opt/xchem-fragalysis-2/maxwin/BulkDock/OUTPUTS/RdRp_knitwork_primer_grip_n_pocket_impure_split4000_batch001_211033.sdf']

>  <original SMILES>  (102) 
S=c1cc(-c2ccccn2)cn[nH]1

>  <tags>  (102) 
['Fragmenstein placed']

>  <alias>  (102) 
None

>  <fragmenstein_outcome>  (102) 
['acceptable']

>  <HIPPO Compound ID>  (102) 
15385

>  <name>  (102) 
PIWYUWMHQMXWEY-UHFFFAOYSA-N

>  <fragmenstein_mode>  (102) 
['expansion']

>  <ref_pdb>  (102) 
d0160a

>  <HIPPO Pose ID>  (102) 
49894

>  <distance_score>  (102) 
0.905973

>  <original ID>  (102) 
PIWYUWMHQMXWEY-UHFFFAOYSA-N

>  <ref_mols>  (102) 
d0160a,d0615b

>  <SLURM_JOB_NAME>  (102) 
BulkDock.place:Flavi_NS5_RdRp:RdRp_knitwork_primer_grip_n_pocket_impure_split4000_batch001

>  <fragmenstein_runtime>  (102) 
[1.8588769435882568]

>  <fragmenstein_error>  (102) 
['']

>  <energy_score>  (102) 
-16.763468

>  <inchikey>  (102) 
PIWYUWMHQMXWEY-UHFFFAOYSA-N

>  <SLURM_JOB_ID>  (102) 
211033

>  <scratch_subdir>  (102) 
['/opt/xchem-fragalysis-2/maxwin/BulkDock/SCRATCH/211033/C15385-P12']

$$$$
50001
     RDKit          3D

 22 23  0  0  0  0  0  0  0  0999 V2000
  -18.1542  -46.0334  -22.6540 C   0  0  0  0  0  0  0  0  0  0  0  0
  -18.0845  -45.4907  -21.2493 C   0  0  0  0  0  0  0  0  0  0  0  0
  -17.0885  -46.2155  -20.5059 O   0  0  0  0  0  0  0  0  0  0  0  0
  -15.8024  -45.8421  -20.3652 C   0  0  0  0  0  0  0  0  0  0  0  0
  -15.0908  -46.4407  -19.5601 O   0  0  0  0  0  0  0  0  0  0  0  0
  -15.2628  -44.7291  -21.2134 C   0  0  0  0  0  0  0  0  0  0  0  0
  -14.8460  -43.5340  -20.3702 C   0  0  1  0  0  0  0  0  0  0  0  0
  -13.7531  -43.8305  -19.3469 C   0  0  0  0  0  0  0  0  0  0  0  0
  -14.2832  -42.5199  -21.2049 O   0  0  0  0  0  0  0  0  0  0  0  0
  -15.1076  -41.9196  -22.0916 C   0  0  0  0  0  0  0  0  0  0  0  0
  -16.2515  -42.2744  -22.3383 O   0  0  0  0  0  0  0  0  0  0  0  0
  -14.4332  -40.7692  -22.5894 C   0  0  0  0  0  0  0  0  0  0  0  0
  -13.4341  -40.0634  -21.9350 C   0  0  0  0  0  0  0  0  0  0  0  0
  -13.3107  -38.8757  -22.6413 C   0  0  0  0  0  0  0  0  0  0  0  0
  -14.1160  -38.8395  -23.6980 N   0  0  0  0  0  0  0  0  0  0  0  0
  -14.6961  -40.0771  -23.7588 N   0  0  0  0  0  0  0  0  0  0  0  0
  -15.4452  -40.4607  -24.9168 C   0  0  0  0  0  0  0  0  0  0  0  0
  -15.7798  -39.4925  -25.8660 C   0  0  0  0  0  0  0  0  0  0  0  0
  -16.5511  -39.8681  -26.9569 C   0  0  0  0  0  0  0  0  0  0  0  0
  -17.0111  -41.1194  -27.1727 N   0  0  0  0  0  0  0  0  0  0  0  0
  -16.6157  -42.0482  -26.2803 C   0  0  0  0  0  0  0  0  0  0  0  0
  -15.8368  -41.7783  -25.1620 C   0  0  0  0  0  0  0  0  0  0  0  0
  1  2  1  0
  2  3  1  0
  3  4  1  0
  4  5  2  0
  4  6  1  0
  6  7  1  0
  7  8  1  1
  7  9  1  0
  9 10  1  0
 10 11  2  0
 10 12  1  0
 12 13  2  0
 13 14  1  0
 14 15  2  0
 15 16  1  0
 16 17  1  0
 17 18  2  0
 18 19  1  0
 19 20  2  0
 20 21  1  0
 21 22  2  0
 16 12  1  0
 22 17  1  0
M  END
>  <csv_name>  (103) 
RdRp_knitwork_primer_grip_n_pocket_impure_split4000_batch006.csv

>  <exports>  (103) 
['/opt/xchem-fragalysis-2/maxwin/BulkDock/OUTPUTS/RdRp_knitwork_primer_grip_n_pocket_impure_split4000_batch006_211038.sdf']

>  <original SMILES>  (103) 
CCOC(=O)C[C@@H](C)OC(=O)c1ccnn1-c1ccncc1

>  <tags>  (103) 
['Fragmenstein placed']

>  <alias>  (103) 
None

>  <fragmenstein_outcome>  (103) 
['acceptable']

>  <HIPPO Compound ID>  (103) 
9207

>  <name>  (103) 
KFFCQQFHRWBKTC-LLVKDONJSA-N

>  <fragmenstein_mode>  (103) 
['expansion']

>  <ref_pdb>  (103) 
d0160a

>  <HIPPO Pose ID>  (103) 
50001

>  <distance_score>  (103) 
0.846274

>  <original ID>  (103) 
KFFCQQFHRWBKTC-LLVKDONJSA-N

>  <ref_mols>  (103) 
d0160a,d0472a

>  <SLURM_JOB_NAME>  (103) 
BulkDock.place:Flavi_NS5_RdRp:RdRp_knitwork_primer_grip_n_pocket_impure_split4000_batch006

>  <fragmenstein_runtime>  (103) 
[5.2137672901153564]

>  <fragmenstein_error>  (103) 
['']

>  <energy_score>  (103) 
-84.655575

>  <inchikey>  (103) 
KFFCQQFHRWBKTC-LLVKDONJSA-N

>  <SLURM_JOB_ID>  (103) 
211038

>  <scratch_subdir>  (103) 
['/opt/xchem-fragalysis-2/maxwin/BulkDock/SCRATCH/211038/C9207-P12']

$$$$
50008
     RDKit          3D

 22 23  0  0  0  0  0  0  0  0999 V2000
  -18.1956  -46.1299  -22.5120 C   0  0  0  0  0  0  0  0  0  0  0  0
  -18.0502  -45.7887  -21.0512 C   0  0  0  0  0  0  0  0  0  0  0  0
  -16.8783  -46.4326  -20.5073 O   0  0  0  0  0  0  0  0  0  0  0  0
  -15.7465  -45.7608  -20.1769 C   0  0  0  0  0  0  0  0  0  0  0  0
  -14.9327  -46.2708  -19.4144 O   0  0  0  0  0  0  0  0  0  0  0  0
  -15.5447  -44.4325  -20.8398 C   0  0  0  0  0  0  0  0  0  0  0  0
  -14.1528  -43.8207  -20.7106 C   0  0  2  0  0  0  0  0  0  0  0  0
  -13.7800  -43.4595  -19.2758 C   0  0  0  0  0  0  0  0  0  0  0  0
  -13.9743  -42.5904  -21.4487 O   0  0  0  0  0  0  0  0  0  0  0  0
  -14.8842  -42.0618  -22.2955 C   0  0  0  0  0  0  0  0  0  0  0  0
  -15.9570  -42.5530  -22.6084 O   0  0  0  0  0  0  0  0  0  0  0  0
  -14.4030  -40.7747  -22.6802 C   0  0  0  0  0  0  0  0  0  0  0  0
  -13.5365  -39.9808  -21.9417 C   0  0  0  0  0  0  0  0  0  0  0  0
  -13.5439  -38.7468  -22.5735 C   0  0  0  0  0  0  0  0  0  0  0  0
  -14.3052  -38.7483  -23.6611 N   0  0  0  0  0  0  0  0  0  0  0  0
  -14.7466  -40.0369  -23.8040 N   0  0  0  0  0  0  0  0  0  0  0  0
  -15.4588  -40.4053  -24.9922 C   0  0  0  0  0  0  0  0  0  0  0  0
  -15.8617  -39.4056  -25.8829 C   0  0  0  0  0  0  0  0  0  0  0  0
  -16.6092  -39.7624  -26.9979 C   0  0  0  0  0  0  0  0  0  0  0  0
  -16.9855  -41.0253  -27.2920 N   0  0  0  0  0  0  0  0  0  0  0  0
  -16.5212  -41.9767  -26.4583 C   0  0  0  0  0  0  0  0  0  0  0  0
  -15.7556  -41.7256  -25.3266 C   0  0  0  0  0  0  0  0  0  0  0  0
  1  2  1  0
  2  3  1  0
  3  4  1  0
  4  5  2  0
  4  6  1  0
  6  7  1  0
  7  8  1  1
  7  9  1  0
  9 10  1  0
 10 11  2  0
 10 12  1  0
 12 13  2  0
 13 14  1  0
 14 15  2  0
 15 16  1  0
 16 17  1  0
 17 18  2  0
 18 19  1  0
 19 20  2  0
 20 21  1  0
 21 22  2  0
 16 12  1  0
 22 17  1  0
M  END
>  <csv_name>  (104) 
RdRp_knitwork_primer_grip_n_pocket_impure_split4000_batch006.csv

>  <exports>  (104) 
['/opt/xchem-fragalysis-2/maxwin/BulkDock/OUTPUTS/RdRp_knitwork_primer_grip_n_pocket_impure_split4000_batch006_211038.sdf']

>  <original SMILES>  (104) 
CCOC(=O)C[C@H](C)OC(=O)c1ccnn1-c1ccncc1

>  <tags>  (104) 
['Fragmenstein placed']

>  <alias>  (104) 
None

>  <fragmenstein_outcome>  (104) 
['acceptable']

>  <HIPPO Compound ID>  (104) 
9207

>  <name>  (104) 
KFFCQQFHRWBKTC-NSHDSACASA-N

>  <fragmenstein_mode>  (104) 
['expansion']

>  <ref_pdb>  (104) 
d0472a

>  <HIPPO Pose ID>  (104) 
50008

>  <distance_score>  (104) 
0.825071

>  <original ID>  (104) 
KFFCQQFHRWBKTC-NSHDSACASA-N

>  <ref_mols>  (104) 
d0160a,d0472a

>  <SLURM_JOB_NAME>  (104) 
BulkDock.place:Flavi_NS5_RdRp:RdRp_knitwork_primer_grip_n_pocket_impure_split4000_batch006

>  <fragmenstein_runtime>  (104) 
[5.590539216995239]

>  <fragmenstein_error>  (104) 
['']

>  <energy_score>  (104) 
-80.726975

>  <inchikey>  (104) 
KFFCQQFHRWBKTC-NSHDSACASA-N

>  <SLURM_JOB_ID>  (104) 
211038

>  <scratch_subdir>  (104) 
['/opt/xchem-fragalysis-2/maxwin/BulkDock/SCRATCH/211038/C9207-P42']

$$$$
51564
     RDKit          3D

 11 12  0  0  0  0  0  0  0  0999 V2000
  -15.3054  -44.7297  -21.1642 C   0  0  0  0  0  0  0  0  0  0  0  0
  -14.5560  -43.6147  -21.5105 C   0  0  0  0  0  0  0  0  0  0  0  0
  -13.7686  -43.0043  -20.5330 C   0  0  0  0  0  0  0  0  0  0  0  0
  -13.0322  -41.7773  -20.8209 C   0  0  0  0  0  0  0  0  0  0  0  0
  -13.3224  -40.7019  -21.6423 C   0  0  0  0  0  0  0  0  0  0  0  0
  -12.3431  -39.7413  -21.5814 N   0  0  0  0  0  0  0  0  0  0  0  0
  -11.4766  -40.1978  -20.7086 C   0  0  0  0  0  0  0  0  0  0  0  0
  -11.8175  -41.4437  -20.2632 N   0  0  0  0  0  0  0  0  0  0  0  0
  -13.7697  -43.5516  -19.2490 C   0  0  0  0  0  0  0  0  0  0  0  0
  -14.5574  -44.6652  -18.9993 C   0  0  0  0  0  0  0  0  0  0  0  0
  -15.3133  -45.2828  -19.9305 N   0  0  0  0  0  0  0  0  0  0  0  0
  1  2  2  0
  2  3  1  0
  3  4  1  0
  4  5  2  0
  5  6  1  0
  6  7  2  0
  7  8  1  0
  3  9  2  0
  9 10  1  0
 10 11  2  0
 11  1  1  0
  8  4  1  0
M  END
>  <csv_name>  (105) 
RdRp_knitwork_primer_grip_n_pocket_impure_split4000_batch004.csv

>  <exports>  (105) 
['/opt/xchem-fragalysis-2/maxwin/BulkDock/OUTPUTS/RdRp_knitwork_primer_grip_n_pocket_impure_split4000_batch004_211036.sdf']

>  <original SMILES>  (105) 
c1cc(-c2cnc[nH]2)ccn1

>  <tags>  (105) 
['Fragmenstein placed']

>  <alias>  (105) 
None

>  <fragmenstein_outcome>  (105) 
['acceptable']

>  <HIPPO Compound ID>  (105) 
8715

>  <name>  (105) 
AJQQGJNKKDEODG-UHFFFAOYSA-N

>  <fragmenstein_mode>  (105) 
['expansion']

>  <ref_pdb>  (105) 
d0472a

>  <HIPPO Pose ID>  (105) 
51564

>  <distance_score>  (105) 
0.859558

>  <original ID>  (105) 
AJQQGJNKKDEODG-UHFFFAOYSA-N

>  <ref_mols>  (105) 
d0472a,z0875c

>  <SLURM_JOB_NAME>  (105) 
BulkDock.place:Flavi_NS5_RdRp:RdRp_knitwork_primer_grip_n_pocket_impure_split4000_batch004

>  <fragmenstein_runtime>  (105) 
[2.5739381313323975]

>  <fragmenstein_error>  (105) 
['']

>  <energy_score>  (105) 
-11.85689

>  <inchikey>  (105) 
AJQQGJNKKDEODG-UHFFFAOYSA-N

>  <SLURM_JOB_ID>  (105) 
211036

>  <scratch_subdir>  (105) 
['/opt/xchem-fragalysis-2/maxwin/BulkDock/SCRATCH/211036/C8715-P42']

$$$$
51755
     RDKit          3D

 21 22  0  0  0  0  0  0  0  0999 V2000
  -15.9824  -46.9875  -19.1123 C   0  0  0  0  0  0  0  0  0  0  0  0
  -16.7903  -45.9068  -18.4109 C   0  0  1  0  0  0  0  0  0  0  0  0
  -16.1465  -44.6477  -18.6611 O   0  0  0  0  0  0  0  0  0  0  0  0
  -18.2555  -45.8244  -18.8696 C   0  0  0  0  0  0  0  0  0  0  0  0
  -18.4448  -45.7999  -20.3873 C   0  0  0  0  0  0  0  0  0  0  0  0
  -17.4927  -44.9035  -20.9927 N   0  0  0  0  0  0  0  0  0  0  0  0
  -17.5814  -44.6428  -22.5558 C   0  0  0  0  0  0  0  0  0  0  0  0
  -18.7159  -44.2396  -22.8549 O   0  0  0  0  0  0  0  0  0  0  0  0
  -16.4568  -43.6425  -22.1784 N   0  0  0  0  0  0  0  0  0  0  0  0
  -15.9192  -42.7796  -23.0920 C   0  0  0  0  0  0  0  0  0  0  0  0
  -14.9527  -41.9674  -22.7387 N   0  0  0  0  0  0  0  0  0  0  0  0
  -14.7441  -41.0526  -23.7418 C   0  0  0  0  0  0  0  0  0  0  0  0
  -15.5650  -41.1799  -24.8404 C   0  0  0  0  0  0  0  0  0  0  0  0
  -15.7372  -40.2413  -25.9833 C   0  0  0  0  0  0  0  0  0  0  0  0
  -16.3451  -38.8774  -25.5609 C   0  0  2  0  0  0  0  0  0  0  0  0
  -17.2780  -38.9026  -24.3412 C   0  0  0  0  0  0  0  0  0  0  0  0
  -17.9693  -37.5614  -24.1269 C   0  0  0  0  0  0  0  0  0  0  0  0
  -18.6812  -37.1496  -25.3914 C   0  0  0  0  0  0  0  0  0  0  0  0
  -17.7697  -37.0669  -26.4737 O   0  0  0  0  0  0  0  0  0  0  0  0
  -17.0693  -38.2744  -26.7606 C   0  0  0  0  0  0  0  0  0  0  0  0
  -16.5172  -42.6011  -24.6720 S   0  0  0  0  0  0  0  0  0  0  0  0
  2  1  1  6
  2  3  1  0
  2  4  1  0
  4  5  1  0
  5  6  1  0
  6  7  1  0
  7  8  2  0
  7  9  1  0
  9 10  1  0
 10 11  2  0
 11 12  1  0
 12 13  2  0
 13 14  1  0
 15 14  1  6
 15 16  1  0
 16 17  1  0
 17 18  1  0
 18 19  1  0
 19 20  1  0
 13 21  1  0
 21 10  1  0
 20 15  1  0
M  END
>  <csv_name>  (106) 
RdRp_knitwork_primer_grip_n_pocket_impure_split4000_batch003.csv

>  <exports>  (106) 
['/opt/xchem-fragalysis-2/maxwin/BulkDock/OUTPUTS/RdRp_knitwork_primer_grip_n_pocket_impure_split4000_batch003_211035.sdf']

>  <original SMILES>  (106) 
C[C@@H](O)CCNC(=O)Nc1ncc(C[C@@H]2CCCOC2)s1

>  <tags>  (106) 
['Fragmenstein placed']

>  <alias>  (106) 
None

>  <fragmenstein_outcome>  (106) 
['acceptable']

>  <HIPPO Compound ID>  (106) 
23577

>  <name>  (106) 
KIZPPOIFKZABCW-MNOVXSKESA-N

>  <fragmenstein_mode>  (106) 
['expansion']

>  <ref_pdb>  (106) 
d0615b

>  <HIPPO Pose ID>  (106) 
51755

>  <distance_score>  (106) 
0.848639

>  <original ID>  (106) 
KIZPPOIFKZABCW-MNOVXSKESA-N

>  <ref_mols>  (106) 
d0254a,d0615b

>  <SLURM_JOB_NAME>  (106) 
BulkDock.place:Flavi_NS5_RdRp:RdRp_knitwork_primer_grip_n_pocket_impure_split4000_batch003

>  <fragmenstein_runtime>  (106) 
[6.063606023788452]

>  <fragmenstein_error>  (106) 
['']

>  <energy_score>  (106) 
-51.428748

>  <inchikey>  (106) 
KIZPPOIFKZABCW-MNOVXSKESA-N

>  <SLURM_JOB_ID>  (106) 
211035

>  <scratch_subdir>  (106) 
['/opt/xchem-fragalysis-2/maxwin/BulkDock/SCRATCH/211035/C23577-P51']

$$$$
51777
     RDKit          3D

 23 24  0  0  0  0  0  0  0  0999 V2000
  -16.0402  -37.5508  -22.2268 C   0  0  0  0  0  0  0  0  0  0  0  0
  -15.6801  -38.0360  -23.5135 O   0  0  0  0  0  0  0  0  0  0  0  0
  -16.5771  -37.8357  -24.5296 C   0  0  0  0  0  0  0  0  0  0  0  0
  -17.6362  -36.9345  -24.4811 C   0  0  0  0  0  0  0  0  0  0  0  0
  -18.5179  -36.8888  -25.5526 C   0  0  0  0  0  0  0  0  0  0  0  0
  -18.4072  -37.6405  -26.6735 N   0  0  0  0  0  0  0  0  0  0  0  0
  -17.3479  -38.4914  -26.7136 C   0  0  0  0  0  0  0  0  0  0  0  0
  -16.4405  -38.6295  -25.6742 C   0  0  0  0  0  0  0  0  0  0  0  0
  -15.5509  -39.7987  -25.6799 C   0  0  0  0  0  0  0  0  0  0  0  0
  -14.5247  -39.7688  -26.3443 O   0  0  0  0  0  0  0  0  0  0  0  0
  -16.0056  -40.9228  -24.9839 N   0  0  0  0  0  0  0  0  0  0  0  0
  -17.3223  -40.9907  -24.3800 C   0  0  0  0  0  0  0  0  0  0  0  0
  -15.2058  -42.1422  -25.0566 C   0  0  0  0  0  0  0  0  0  0  0  0
  -15.4813  -43.2172  -23.9962 C   0  0  0  0  0  0  0  0  0  0  0  0
  -16.8455  -43.7477  -24.0974 N   0  0  0  0  0  0  0  0  0  0  0  0
  -17.4883  -44.3366  -22.7631 C   0  0  0  0  0  0  0  0  0  0  0  0
  -16.5765  -45.0921  -22.3951 O   0  0  0  0  0  0  0  0  0  0  0  0
  -18.7267  -44.6221  -23.6978 C   0  0  0  0  0  0  0  0  0  0  0  0
  -19.7032  -43.5120  -23.5393 C   0  0  0  0  0  0  0  0  0  0  0  0
  -20.4021  -42.9875  -22.4780 C   0  0  0  0  0  0  0  0  0  0  0  0
  -21.1326  -41.9289  -23.0437 C   0  0  0  0  0  0  0  0  0  0  0  0
  -20.9094  -41.8079  -24.3538 N   0  0  0  0  0  0  0  0  0  0  0  0
  -20.0290  -42.8291  -24.6702 O   0  0  0  0  0  0  0  0  0  0  0  0
  1  2  1  0
  2  3  1  0
  3  4  2  0
  4  5  1  0
  5  6  2  0
  6  7  1  0
  7  8  2  0
  8  9  1  0
  9 10  2  0
  9 11  1  0
 11 12  1  0
 11 13  1  0
 13 14  1  0
 14 15  1  0
 15 16  1  0
 16 17  2  0
 16 18  1  0
 18 19  1  0
 19 20  2  0
 20 21  1  0
 21 22  2  0
 22 23  1  0
  8  3  1  0
 23 19  1  0
M  END
>  <csv_name>  (107) 
RdRp_knitwork_primer_grip_n_pocket_impure_split4000_batch002.csv

>  <exports>  (107) 
['/opt/xchem-fragalysis-2/maxwin/BulkDock/OUTPUTS/RdRp_knitwork_primer_grip_n_pocket_impure_split4000_batch002_211034.sdf']

>  <original SMILES>  (107) 
COc1ccncc1C(=O)N(C)CCNC(=O)Cc1ccno1

>  <tags>  (107) 
['Fragmenstein placed']

>  <alias>  (107) 
None

>  <fragmenstein_outcome>  (107) 
['acceptable']

>  <HIPPO Compound ID>  (107) 
10601

>  <name>  (107) 
BQPJSVIWACYQPE-UHFFFAOYSA-N

>  <fragmenstein_mode>  (107) 
['expansion']

>  <ref_pdb>  (107) 
d0472a

>  <HIPPO Pose ID>  (107) 
51777

>  <distance_score>  (107) 
0.915311

>  <original ID>  (107) 
BQPJSVIWACYQPE-UHFFFAOYSA-N

>  <ref_mols>  (107) 
d0191a,d0472a

>  <SLURM_JOB_NAME>  (107) 
BulkDock.place:Flavi_NS5_RdRp:RdRp_knitwork_primer_grip_n_pocket_impure_split4000_batch002

>  <fragmenstein_runtime>  (107) 
[8.086699962615967]

>  <fragmenstein_error>  (107) 
['']

>  <energy_score>  (107) 
-96.458098

>  <inchikey>  (107) 
BQPJSVIWACYQPE-UHFFFAOYSA-N

>  <SLURM_JOB_ID>  (107) 
211034

>  <scratch_subdir>  (107) 
['/opt/xchem-fragalysis-2/maxwin/BulkDock/SCRATCH/211034/C10601-P42']

$$$$
51879
     RDKit          3D

 23 24  0  0  0  0  0  0  0  0999 V2000
  -16.3284  -47.9933  -17.5336 C   0  0  0  0  0  0  0  0  0  0  0  0
  -16.7093  -47.6161  -18.9528 C   0  0  0  0  0  0  0  0  0  0  0  0
  -17.9030  -46.6442  -18.9517 C   0  0  0  0  0  0  0  0  0  0  0  0
  -18.1284  -45.9704  -20.3092 C   0  0  0  0  0  0  0  0  0  0  0  0
  -17.0523  -45.0719  -20.7445 N   0  0  0  0  0  0  0  0  0  0  0  0
  -16.1702  -44.5041  -19.6963 C   0  0  0  0  0  0  0  0  0  0  0  0
  -16.8425  -43.4411  -18.8272 C   0  0  0  0  0  0  0  0  0  0  0  0
  -16.9746  -42.0570  -19.4718 C   0  0  0  0  0  0  0  0  0  0  0  0
  -18.3032  -41.8423  -20.1804 C   0  0  0  0  0  0  0  0  0  0  0  0
  -17.1192  -44.6850  -22.1716 C   0  0  0  0  0  0  0  0  0  0  0  0
  -18.2399  -44.5431  -22.6743 O   0  0  0  0  0  0  0  0  0  0  0  0
  -16.0914  -43.7564  -22.3280 N   0  0  0  0  0  0  0  0  0  0  0  0
  -15.7505  -43.0061  -23.4056 C   0  0  0  0  0  0  0  0  0  0  0  0
  -14.7266  -42.1984  -23.2633 N   0  0  0  0  0  0  0  0  0  0  0  0
  -14.6975  -41.3201  -24.3084 C   0  0  0  0  0  0  0  0  0  0  0  0
  -15.7053  -41.4748  -25.2308 C   0  0  0  0  0  0  0  0  0  0  0  0
  -16.0683  -40.5395  -26.3259 C   0  0  0  0  0  0  0  0  0  0  0  0
  -16.4242  -39.1493  -25.7700 C   0  0  1  0  0  0  0  0  0  0  0  0
  -17.1758  -38.3134  -26.7786 C   0  0  0  0  0  0  0  0  0  0  0  0
  -17.9892  -37.3876  -25.9100 C   0  0  0  0  0  0  0  0  0  0  0  0
  -18.3848  -38.1688  -24.7931 O   0  0  0  0  0  0  0  0  0  0  0  0
  -17.3285  -39.1055  -24.5333 C   0  0  0  0  0  0  0  0  0  0  0  0
  -16.6285  -42.8787  -24.8451 S   0  0  0  0  0  0  0  0  0  0  0  0
  1  2  1  0
  2  3  1  0
  3  4  1  0
  4  5  1  0
  5  6  1  0
  6  7  1  0
  7  8  1  0
  8  9  1  0
  5 10  1  0
 10 11  2  0
 10 12  1  0
 12 13  1  0
 13 14  2  0
 14 15  1  0
 15 16  2  0
 16 17  1  0
 18 17  1  6
 18 19  1  0
 19 20  1  0
 20 21  1  0
 21 22  1  0
 16 23  1  0
 23 13  1  0
 22 18  1  0
M  END
>  <csv_name>  (108) 
RdRp_knitwork_primer_grip_n_pocket_impure_split4000_batch003.csv

>  <exports>  (108) 
['/opt/xchem-fragalysis-2/maxwin/BulkDock/OUTPUTS/RdRp_knitwork_primer_grip_n_pocket_impure_split4000_batch003_211035.sdf']

>  <original SMILES>  (108) 
CCCCN(CCCC)C(=O)Nc1ncc(C[C@H]2CCOC2)s1

>  <tags>  (108) 
['Fragmenstein placed']

>  <alias>  (108) 
None

>  <fragmenstein_outcome>  (108) 
['acceptable']

>  <HIPPO Compound ID>  (108) 
23712

>  <name>  (108) 
FEOHWIBMJWSLGD-CQSZACIVSA-N

>  <fragmenstein_mode>  (108) 
['expansion']

>  <ref_pdb>  (108) 
d0254a

>  <HIPPO Pose ID>  (108) 
51879

>  <distance_score>  (108) 
0.976536

>  <original ID>  (108) 
FEOHWIBMJWSLGD-CQSZACIVSA-N

>  <ref_mols>  (108) 
d0254a,d0615b

>  <SLURM_JOB_NAME>  (108) 
BulkDock.place:Flavi_NS5_RdRp:RdRp_knitwork_primer_grip_n_pocket_impure_split4000_batch003

>  <fragmenstein_runtime>  (108) 
[27.468856811523438]

>  <fragmenstein_error>  (108) 
['']

>  <energy_score>  (108) 
-82.320516

>  <inchikey>  (108) 
FEOHWIBMJWSLGD-CQSZACIVSA-N

>  <SLURM_JOB_ID>  (108) 
211035

>  <scratch_subdir>  (108) 
['/opt/xchem-fragalysis-2/maxwin/BulkDock/SCRATCH/211035/C23712-P26']

$$$$
51892
     RDKit          3D

 23 24  0  0  0  0  0  0  0  0999 V2000
  -20.4782  -45.1381  -17.1047 C   0  0  0  0  0  0  0  0  0  0  0  0
  -19.7366  -46.0160  -18.1003 C   0  0  0  0  0  0  0  0  0  0  0  0
  -19.2734  -45.2205  -19.3203 C   0  0  0  0  0  0  0  0  0  0  0  0
  -18.4435  -46.0545  -20.2986 C   0  0  0  0  0  0  0  0  0  0  0  0
  -17.2266  -45.3736  -20.7365 N   0  0  0  0  0  0  0  0  0  0  0  0
  -16.0445  -45.6054  -19.8907 C   0  0  0  0  0  0  0  0  0  0  0  0
  -15.9778  -44.8450  -18.5658 C   0  0  0  0  0  0  0  0  0  0  0  0
  -15.5597  -43.3747  -18.6682 C   0  0  0  0  0  0  0  0  0  0  0  0
  -16.7060  -42.4128  -18.9304 C   0  0  0  0  0  0  0  0  0  0  0  0
  -17.3619  -44.5657  -21.9452 C   0  0  0  0  0  0  0  0  0  0  0  0
  -18.4320  -43.9703  -22.1122 O   0  0  0  0  0  0  0  0  0  0  0  0
  -16.1307  -43.9234  -22.1106 N   0  0  0  0  0  0  0  0  0  0  0  0
  -15.8227  -42.9897  -23.0572 C   0  0  0  0  0  0  0  0  0  0  0  0
  -14.7853  -42.2084  -22.8794 N   0  0  0  0  0  0  0  0  0  0  0  0
  -14.7467  -41.2713  -23.8815 C   0  0  0  0  0  0  0  0  0  0  0  0
  -15.7056  -41.4018  -24.8597 C   0  0  0  0  0  0  0  0  0  0  0  0
  -15.9646  -40.5038  -26.0223 C   0  0  0  0  0  0  0  0  0  0  0  0
  -16.4067  -39.1074  -25.5660 C   0  0  1  0  0  0  0  0  0  0  0  0
  -17.0221  -38.2916  -26.6809 C   0  0  0  0  0  0  0  0  0  0  0  0
  -17.9180  -37.3444  -25.9195 C   0  0  0  0  0  0  0  0  0  0  0  0
  -18.4849  -38.1243  -24.8796 O   0  0  0  0  0  0  0  0  0  0  0  0
  -17.4910  -39.0818  -24.4887 C   0  0  0  0  0  0  0  0  0  0  0  0
  -16.7037  -42.7536  -24.4899 S   0  0  0  0  0  0  0  0  0  0  0  0
  1  2  1  0
  2  3  1  0
  3  4  1  0
  4  5  1  0
  5  6  1  0
  6  7  1  0
  7  8  1  0
  8  9  1  0
  5 10  1  0
 10 11  2  0
 10 12  1  0
 12 13  1  0
 13 14  2  0
 14 15  1  0
 15 16  2  0
 16 17  1  0
 18 17  1  6
 18 19  1  0
 19 20  1  0
 20 21  1  0
 21 22  1  0
 16 23  1  0
 23 13  1  0
 22 18  1  0
M  END
>  <csv_name>  (109) 
RdRp_knitwork_primer_grip_n_pocket_impure_split4000_batch003.csv

>  <exports>  (109) 
['/opt/xchem-fragalysis-2/maxwin/BulkDock/OUTPUTS/RdRp_knitwork_primer_grip_n_pocket_impure_split4000_batch003_211035.sdf']

>  <original SMILES>  (109) 
CCCCN(CCCC)C(=O)Nc1ncc(C[C@H]2CCOC2)s1

>  <tags>  (109) 
['Fragmenstein placed']

>  <alias>  (109) 
None

>  <fragmenstein_outcome>  (109) 
['acceptable']

>  <HIPPO Compound ID>  (109) 
23712

>  <name>  (109) 
FEOHWIBMJWSLGD-CQSZACIVSA-N

>  <fragmenstein_mode>  (109) 
['expansion']

>  <ref_pdb>  (109) 
d0615b

>  <HIPPO Pose ID>  (109) 
51892

>  <distance_score>  (109) 
0.946279

>  <original ID>  (109) 
FEOHWIBMJWSLGD-CQSZACIVSA-N

>  <ref_mols>  (109) 
d0254a,d0615b

>  <SLURM_JOB_NAME>  (109) 
BulkDock.place:Flavi_NS5_RdRp:RdRp_knitwork_primer_grip_n_pocket_impure_split4000_batch003

>  <fragmenstein_runtime>  (109) 
[27.956679344177246]

>  <fragmenstein_error>  (109) 
['']

>  <energy_score>  (109) 
-92.520577

>  <inchikey>  (109) 
FEOHWIBMJWSLGD-CQSZACIVSA-N

>  <SLURM_JOB_ID>  (109) 
211035

>  <scratch_subdir>  (109) 
['/opt/xchem-fragalysis-2/maxwin/BulkDock/SCRATCH/211035/C23712-P51']

$$$$
51947
     RDKit          3D

 23 24  0  0  0  0  0  0  0  0999 V2000
  -19.4389  -46.1801  -18.1258 C   0  0  0  0  0  0  0  0  0  0  0  0
  -18.3170  -45.5926  -18.9699 C   0  0  2  0  0  0  0  0  0  0  0  0
  -18.3142  -46.1209  -20.4111 C   0  0  0  0  0  0  0  0  0  0  0  0
  -17.4038  -45.3156  -21.2075 N   0  0  0  0  0  0  0  0  0  0  0  0
  -17.8185  -44.7677  -22.6470 C   0  0  0  0  0  0  0  0  0  0  0  0
  -18.8736  -44.1148  -22.5655 O   0  0  0  0  0  0  0  0  0  0  0  0
  -16.4250  -44.0758  -22.4803 N   0  0  0  0  0  0  0  0  0  0  0  0
  -15.9413  -43.1799  -23.3946 C   0  0  0  0  0  0  0  0  0  0  0  0
  -14.8603  -42.4929  -23.1131 N   0  0  0  0  0  0  0  0  0  0  0  0
  -14.7133  -41.4900  -24.0400 C   0  0  0  0  0  0  0  0  0  0  0  0
  -15.6679  -41.4512  -25.0309 C   0  0  0  0  0  0  0  0  0  0  0  0
  -15.8822  -40.3959  -26.0617 C   0  0  0  0  0  0  0  0  0  0  0  0
  -16.4323  -39.0636  -25.4740 C   0  0  0  0  0  0  0  0  0  0  0  0
  -17.1883  -39.1828  -24.1333 C   0  0  0  0  0  0  0  0  0  0  0  0
  -17.9579  -37.9236  -23.7635 C   0  0  0  0  0  0  0  0  0  0  0  0
  -18.8455  -37.5922  -24.8204 O   0  0  0  0  0  0  0  0  0  0  0  0
  -18.1149  -37.2223  -25.9730 C   0  0  0  0  0  0  0  0  0  0  0  0
  -17.3003  -38.3744  -26.5334 C   0  0  0  0  0  0  0  0  0  0  0  0
  -16.7211  -42.8048  -24.8536 S   0  0  0  0  0  0  0  0  0  0  0  0
  -16.7202  -45.8962  -18.1600 S   0  0  0  0  0  0  0  0  0  0  0  0
  -15.6022  -45.2378  -19.2490 N   0  0  0  0  0  0  0  0  0  0  0  0
  -16.3960  -47.3022  -18.1350 O   0  0  0  0  0  0  0  0  0  0  0  0
  -16.5687  -45.0710  -16.9815 O   0  0  0  0  0  0  0  0  0  0  0  0
  2  1  1  1
  2  3  1  0
  3  4  1  0
  4  5  1  0
  5  6  2  0
  5  7  1  0
  7  8  1  0
  8  9  2  0
  9 10  1  0
 10 11  2  0
 11 12  1  0
 12 13  1  0
 13 14  1  0
 14 15  1  0
 15 16  1  0
 16 17  1  0
 17 18  1  0
 11 19  1  0
  2 20  1  0
 20 21  1  0
 20 22  2  0
 20 23  2  0
 19  8  1  0
 18 13  1  0
M  END
>  <csv_name>  (110) 
RdRp_knitwork_primer_grip_n_pocket_impure_split4000_batch003.csv

>  <exports>  (110) 
['/opt/xchem-fragalysis-2/maxwin/BulkDock/OUTPUTS/RdRp_knitwork_primer_grip_n_pocket_impure_split4000_batch003_211035.sdf']

>  <original SMILES>  (110) 
C[C@H](CNC(=O)Nc1ncc(CC2CCOCC2)s1)S(N)(=O)=O

>  <tags>  (110) 
['Fragmenstein placed']

>  <alias>  (110) 
None

>  <fragmenstein_outcome>  (110) 
['acceptable']

>  <HIPPO Compound ID>  (110) 
23751

>  <name>  (110) 
CYKGEVWQGIWROI-SECBINFHSA-N

>  <fragmenstein_mode>  (110) 
['expansion']

>  <ref_pdb>  (110) 
d0254a

>  <HIPPO Pose ID>  (110) 
51947

>  <distance_score>  (110) 
0.901757

>  <original ID>  (110) 
CYKGEVWQGIWROI-SECBINFHSA-N

>  <ref_mols>  (110) 
d0254a,d0615b

>  <SLURM_JOB_NAME>  (110) 
BulkDock.place:Flavi_NS5_RdRp:RdRp_knitwork_primer_grip_n_pocket_impure_split4000_batch003

>  <fragmenstein_runtime>  (110) 
[8.47445559501648]

>  <fragmenstein_error>  (110) 
['']

>  <energy_score>  (110) 
-23.136585

>  <inchikey>  (110) 
CYKGEVWQGIWROI-SECBINFHSA-N

>  <SLURM_JOB_ID>  (110) 
211035

>  <scratch_subdir>  (110) 
['/opt/xchem-fragalysis-2/maxwin/BulkDock/SCRATCH/211035/C23751-P26']

$$$$
52015
     RDKit          3D

 15 16  0  0  0  0  0  0  0  0999 V2000
  -14.2427  -42.3619  -22.3929 O   0  0  0  0  0  0  0  0  0  0  0  0
  -15.3445  -42.4878  -22.9260 C   0  0  0  0  0  0  0  0  0  0  0  0
  -15.7494  -41.4495  -23.7587 N   0  0  0  0  0  0  0  0  0  0  0  0
  -14.8350  -40.8866  -24.7292 C   0  0  0  0  0  0  0  0  0  0  0  0
  -15.4950  -40.3546  -25.9977 C   0  0  0  0  0  0  0  0  0  0  0  0
  -16.4965  -39.2440  -25.8477 C   0  0  0  0  0  0  0  0  0  0  0  0
  -17.3960  -38.8150  -26.8067 C   0  0  0  0  0  0  0  0  0  0  0  0
  -18.2502  -37.7880  -26.4486 N   0  0  0  0  0  0  0  0  0  0  0  0
  -17.9353  -37.3985  -25.2308 C   0  0  0  0  0  0  0  0  0  0  0  0
  -16.6782  -38.2677  -24.4524 S   0  0  0  0  0  0  0  0  0  0  0  0
  -16.4689  -42.5780  -22.1480 O   0  0  0  0  0  0  0  0  0  0  0  0
  -17.6046  -43.2900  -22.6746 C   0  0  0  0  0  0  0  0  0  0  0  0
  -17.6786  -43.7701  -24.1319 C   0  0  0  0  0  0  0  0  0  0  0  0
  -18.2856  -45.0208  -23.6850 O   0  0  0  0  0  0  0  0  0  0  0  0
  -17.7117  -44.7889  -22.3637 C   0  0  0  0  0  0  0  0  0  0  0  0
  1  2  2  0
  2  3  1  0
  3  4  1  0
  4  5  1  0
  5  6  1  0
  6  7  2  0
  7  8  1  0
  8  9  2  0
  9 10  1  0
  2 11  1  0
 11 12  1  0
 12 13  1  0
 13 14  1  0
 14 15  1  0
 10  6  1  0
 15 12  1  0
M  END
>  <csv_name>  (111) 
RdRp_knitwork_primer_grip_n_pocket_impure_split4000_batch003.csv

>  <exports>  (111) 
['/opt/xchem-fragalysis-2/maxwin/BulkDock/OUTPUTS/RdRp_knitwork_primer_grip_n_pocket_impure_split4000_batch003_211035.sdf']

>  <original SMILES>  (111) 
O=C(NCCc1cncs1)OC1COC1

>  <tags>  (111) 
['Fragmenstein placed']

>  <alias>  (111) 
None

>  <fragmenstein_outcome>  (111) 
['acceptable']

>  <HIPPO Compound ID>  (111) 
23764

>  <name>  (111) 
VKMYUINSDWXZGH-UHFFFAOYSA-N

>  <fragmenstein_mode>  (111) 
['expansion']

>  <ref_pdb>  (111) 
d0254a

>  <HIPPO Pose ID>  (111) 
52015

>  <distance_score>  (111) 
0.764732

>  <original ID>  (111) 
VKMYUINSDWXZGH-UHFFFAOYSA-N

>  <ref_mols>  (111) 
d0254a,d0615b

>  <SLURM_JOB_NAME>  (111) 
BulkDock.place:Flavi_NS5_RdRp:RdRp_knitwork_primer_grip_n_pocket_impure_split4000_batch003

>  <fragmenstein_runtime>  (111) 
[2.298931121826172]

>  <fragmenstein_error>  (111) 
['']

>  <energy_score>  (111) 
-15.288846

>  <inchikey>  (111) 
VKMYUINSDWXZGH-UHFFFAOYSA-N

>  <SLURM_JOB_ID>  (111) 
211035

>  <scratch_subdir>  (111) 
['/opt/xchem-fragalysis-2/maxwin/BulkDock/SCRATCH/211035/C23764-P26']

$$$$
52068
     RDKit          3D

 13 14  0  0  0  0  0  0  0  0999 V2000
  -15.0131  -41.5018  -24.1644 C   0  0  0  0  0  0  0  0  0  0  0  0
  -14.8122  -41.2289  -22.8211 C   0  0  0  0  0  0  0  0  0  0  0  0
  -15.3379  -42.0961  -21.8654 C   0  0  0  0  0  0  0  0  0  0  0  0
  -16.0814  -43.2095  -22.2644 C   0  0  0  0  0  0  0  0  0  0  0  0
  -16.6844  -44.0142  -21.2828 N   0  0  0  0  0  0  0  0  0  0  0  0
  -17.8357  -44.7796  -21.7640 C   0  0  0  0  0  0  0  0  0  0  0  0
  -18.3427  -45.8183  -20.7678 C   0  0  0  0  0  0  0  0  0  0  0  0
  -18.4838  -45.2970  -19.3520 C   0  0  0  0  0  0  0  0  0  0  0  0
  -17.2894  -45.5262  -18.6129 O   0  0  0  0  0  0  0  0  0  0  0  0
  -16.2278  -44.6265  -18.9321 C   0  0  0  0  0  0  0  0  0  0  0  0
  -15.7355  -44.7044  -20.3879 C   0  0  0  0  0  0  0  0  0  0  0  0
  -16.2978  -43.4555  -23.5740 N   0  0  0  0  0  0  0  0  0  0  0  0
  -15.7409  -42.6286  -24.4876 C   0  0  0  0  0  0  0  0  0  0  0  0
  1  2  2  0
  2  3  1  0
  3  4  2  0
  4  5  1  0
  5  6  1  0
  6  7  1  0
  7  8  1  0
  8  9  1  0
  9 10  1  0
 10 11  1  0
  4 12  1  0
 12 13  2  0
 13  1  1  0
 11  5  1  0
M  END
>  <csv_name>  (112) 
RdRp_knitwork_primer_grip_n_pocket_impure_split4000_batch003.csv

>  <exports>  (112) 
['/opt/xchem-fragalysis-2/maxwin/BulkDock/OUTPUTS/RdRp_knitwork_primer_grip_n_pocket_impure_split4000_batch003_211035.sdf']

>  <original SMILES>  (112) 
c1ccc(N2CCCOCC2)nc1

>  <tags>  (112) 
['Fragmenstein placed']

>  <alias>  (112) 
None

>  <fragmenstein_outcome>  (112) 
['acceptable']

>  <HIPPO Compound ID>  (112) 
14654

>  <name>  (112) 
VBOACUTYNJLSJJ-UHFFFAOYSA-N

>  <fragmenstein_mode>  (112) 
['expansion']

>  <ref_pdb>  (112) 
d0615b

>  <HIPPO Pose ID>  (112) 
52068

>  <distance_score>  (112) 
0.956436

>  <original ID>  (112) 
VBOACUTYNJLSJJ-UHFFFAOYSA-N

>  <ref_mols>  (112) 
d0254a,d0615b

>  <SLURM_JOB_NAME>  (112) 
BulkDock.place:Flavi_NS5_RdRp:RdRp_knitwork_primer_grip_n_pocket_impure_split4000_batch003

>  <fragmenstein_runtime>  (112) 
[1.7767224311828613]

>  <fragmenstein_error>  (112) 
['']

>  <energy_score>  (112) 
-18.649234

>  <inchikey>  (112) 
VBOACUTYNJLSJJ-UHFFFAOYSA-N

>  <SLURM_JOB_ID>  (112) 
211035

>  <scratch_subdir>  (112) 
['/opt/xchem-fragalysis-2/maxwin/BulkDock/SCRATCH/211035/C14654-P51']

$$$$
52333
     RDKit          3D

 11 12  0  0  0  0  0  0  0  0999 V2000
  -13.6225  -40.9508  -21.9061 C   0  0  0  0  0  0  0  0  0  0  0  0
  -14.2305  -42.2172  -21.8834 C   0  0  0  0  0  0  0  0  0  0  0  0
  -15.1542  -42.3469  -22.8359 N   0  0  0  0  0  0  0  0  0  0  0  0
  -15.0633  -41.1999  -23.5450 N   0  0  0  0  0  0  0  0  0  0  0  0
  -15.9468  -40.9844  -24.6905 C   0  0  0  0  0  0  0  0  0  0  0  0
  -15.3174  -40.1692  -25.8242 C   0  0  0  0  0  0  0  0  0  0  0  0
  -16.2483  -40.0344  -27.0282 C   0  0  0  0  0  0  0  0  0  0  0  0
  -17.4423  -40.8037  -26.8890 O   0  0  0  0  0  0  0  0  0  0  0  0
  -17.1407  -42.1602  -26.5931 C   0  0  0  0  0  0  0  0  0  0  0  0
  -16.4858  -42.3103  -25.2381 C   0  0  0  0  0  0  0  0  0  0  0  0
  -14.1912  -40.3082  -22.9815 C   0  0  0  0  0  0  0  0  0  0  0  0
  1  2  1  0
  2  3  2  0
  3  4  1  0
  4  5  1  0
  5  6  1  0
  6  7  1  0
  7  8  1  0
  8  9  1  0
  9 10  1  0
  4 11  1  0
 11  1  2  0
 10  5  1  0
M  END
>  <csv_name>  (113) 
RdRp_knitwork_primer_grip_n_pocket_impure_split4000_batch005.csv

>  <exports>  (113) 
['/opt/xchem-fragalysis-2/maxwin/BulkDock/OUTPUTS/RdRp_knitwork_primer_grip_n_pocket_impure_split4000_batch005_211037.sdf']

>  <original SMILES>  (113) 
c1cnn(C2CCOCC2)c1

>  <tags>  (113) 
['Fragmenstein placed']

>  <alias>  (113) 
None

>  <fragmenstein_outcome>  (113) 
['acceptable']

>  <HIPPO Compound ID>  (113) 
23931

>  <name>  (113) 
WAGVYTPQQZVQJF-UHFFFAOYSA-N

>  <fragmenstein_mode>  (113) 
['expansion']

>  <ref_pdb>  (113) 
d0160a

>  <HIPPO Pose ID>  (113) 
52333

>  <distance_score>  (113) 
0.828961

>  <original ID>  (113) 
WAGVYTPQQZVQJF-UHFFFAOYSA-N

>  <ref_mols>  (113) 
d0160a,d0254a

>  <SLURM_JOB_NAME>  (113) 
BulkDock.place:Flavi_NS5_RdRp:RdRp_knitwork_primer_grip_n_pocket_impure_split4000_batch005

>  <fragmenstein_runtime>  (113) 
[2.4670777320861816]

>  <fragmenstein_error>  (113) 
['']

>  <energy_score>  (113) 
-19.775767

>  <inchikey>  (113) 
WAGVYTPQQZVQJF-UHFFFAOYSA-N

>  <SLURM_JOB_ID>  (113) 
211037

>  <scratch_subdir>  (113) 
['/opt/xchem-fragalysis-2/maxwin/BulkDock/SCRATCH/211037/C23931-P12']

$$$$
52334
     RDKit          3D

 11 12  0  0  0  0  0  0  0  0999 V2000
  -13.6212  -40.8586  -21.8947 C   0  0  0  0  0  0  0  0  0  0  0  0
  -14.3258  -42.0685  -21.7859 C   0  0  0  0  0  0  0  0  0  0  0  0
  -15.2468  -42.2000  -22.7405 N   0  0  0  0  0  0  0  0  0  0  0  0
  -15.0544  -41.1245  -23.5376 N   0  0  0  0  0  0  0  0  0  0  0  0
  -15.8737  -40.9642  -24.7395 C   0  0  0  0  0  0  0  0  0  0  0  0
  -15.1991  -40.1796  -25.8667 C   0  0  0  0  0  0  0  0  0  0  0  0
  -16.0983  -40.0485  -27.0937 C   0  0  0  0  0  0  0  0  0  0  0  0
  -17.1105  -41.0466  -27.1820 O   0  0  0  0  0  0  0  0  0  0  0  0
  -16.6527  -42.3133  -26.7420 C   0  0  0  0  0  0  0  0  0  0  0  0
  -16.3440  -42.3255  -25.2634 C   0  0  0  0  0  0  0  0  0  0  0  0
  -14.1262  -40.2593  -23.0258 C   0  0  0  0  0  0  0  0  0  0  0  0
  1  2  1  0
  2  3  2  0
  3  4  1  0
  4  5  1  0
  5  6  1  0
  6  7  1  0
  7  8  1  0
  8  9  1  0
  9 10  1  0
  4 11  1  0
 11  1  2  0
 10  5  1  0
M  END
>  <csv_name>  (114) 
RdRp_knitwork_primer_grip_n_pocket_impure_split4000_batch005.csv

>  <exports>  (114) 
['/opt/xchem-fragalysis-2/maxwin/BulkDock/OUTPUTS/RdRp_knitwork_primer_grip_n_pocket_impure_split4000_batch005_211037.sdf']

>  <original SMILES>  (114) 
c1cnn(C2CCOCC2)c1

>  <tags>  (114) 
['Fragmenstein placed']

>  <alias>  (114) 
None

>  <fragmenstein_outcome>  (114) 
['acceptable']

>  <HIPPO Compound ID>  (114) 
23931

>  <name>  (114) 
WAGVYTPQQZVQJF-UHFFFAOYSA-N

>  <fragmenstein_mode>  (114) 
['expansion']

>  <ref_pdb>  (114) 
d0254a

>  <HIPPO Pose ID>  (114) 
52334

>  <distance_score>  (114) 
0.849134

>  <original ID>  (114) 
WAGVYTPQQZVQJF-UHFFFAOYSA-N

>  <ref_mols>  (114) 
d0160a,d0254a

>  <SLURM_JOB_NAME>  (114) 
BulkDock.place:Flavi_NS5_RdRp:RdRp_knitwork_primer_grip_n_pocket_impure_split4000_batch005

>  <fragmenstein_runtime>  (114) 
[2.4857561588287354]

>  <fragmenstein_error>  (114) 
['']

>  <energy_score>  (114) 
-19.566422

>  <inchikey>  (114) 
WAGVYTPQQZVQJF-UHFFFAOYSA-N

>  <SLURM_JOB_ID>  (114) 
211037

>  <scratch_subdir>  (114) 
['/opt/xchem-fragalysis-2/maxwin/BulkDock/SCRATCH/211037/C23931-P26']

$$$$
52378
     RDKit          3D

 21 22  0  0  0  0  0  0  0  0999 V2000
  -14.1567  -42.7270  -21.8067 C   0  0  0  0  0  0  0  0  0  0  0  0
  -15.4000  -42.2036  -22.5821 C   0  0  2  0  0  0  0  0  0  0  0  0
  -14.9044  -41.7244  -23.9778 C   0  0  0  0  0  0  0  0  0  0  0  0
  -15.9472  -40.9981  -24.8298 C   0  0  1  0  0  0  0  0  0  0  0  0
  -15.3080  -40.0228  -25.8221 C   0  0  0  0  0  0  0  0  0  0  0  0
  -16.3901  -39.3861  -26.6874 C   0  0  0  0  0  0  0  0  0  0  0  0
  -17.2419  -40.4631  -27.3406 C   0  0  0  0  0  0  0  0  0  0  0  0
  -17.7597  -41.4281  -26.2892 C   0  0  0  0  0  0  0  0  0  0  0  0
  -16.6828  -41.9885  -25.5499 O   0  0  0  0  0  0  0  0  0  0  0  0
  -15.9194  -41.0068  -21.7737 C   0  0  0  0  0  0  0  0  0  0  0  0
  -17.0297  -40.8444  -21.2903 O   0  0  0  0  0  0  0  0  0  0  0  0
  -15.0094  -40.0192  -21.6296 O   0  0  0  0  0  0  0  0  0  0  0  0
  -16.4445  -43.2445  -22.6351 N   0  0  0  0  0  0  0  0  0  0  0  0
  -17.7454  -43.1356  -23.0601 C   0  0  0  0  0  0  0  0  0  0  0  0
  -18.4007  -44.2747  -22.6650 C   0  0  0  0  0  0  0  0  0  0  0  0
  -17.4458  -44.9987  -21.9181 C   0  0  0  0  0  0  0  0  0  0  0  0
  -17.7087  -46.2023  -21.0637 C   0  0  0  0  0  0  0  0  0  0  0  0
  -18.7722  -45.9794  -20.2417 F   0  0  0  0  0  0  0  0  0  0  0  0
  -18.0047  -47.2966  -21.8115 F   0  0  0  0  0  0  0  0  0  0  0  0
  -16.6565  -46.5228  -20.2661 F   0  0  0  0  0  0  0  0  0  0  0  0
  -16.2358  -44.4216  -22.0044 N   0  0  0  0  0  0  0  0  0  0  0  0
  2  1  1  1
  2  3  1  0
  4  3  1  6
  4  5  1  0
  5  6  1  0
  6  7  1  0
  7  8  1  0
  8  9  1  0
  2 10  1  0
 10 11  2  0
 10 12  1  0
  2 13  1  0
 13 14  1  0
 14 15  2  0
 15 16  1  0
 16 17  1  0
 17 18  1  0
 17 19  1  0
 17 20  1  0
 16 21  2  0
  9  4  1  0
 21 13  1  0
M  END
>  <csv_name>  (115) 
RdRp_knitwork_primer_grip_n_pocket_impure_split4000_batch005.csv

>  <exports>  (115) 
['/opt/xchem-fragalysis-2/maxwin/BulkDock/OUTPUTS/RdRp_knitwork_primer_grip_n_pocket_impure_split4000_batch005_211037.sdf']

>  <original SMILES>  (115) 
C[C@](C[C@H]1CCCCO1)(C(=O)O)n1ccc(C(F)(F)F)n1

>  <tags>  (115) 
['Fragmenstein placed']

>  <alias>  (115) 
None

>  <fragmenstein_outcome>  (115) 
['acceptable']

>  <HIPPO Compound ID>  (115) 
24004

>  <name>  (115) 
DNIYQXIIBSECON-SKDRFNHKSA-N

>  <fragmenstein_mode>  (115) 
['expansion']

>  <ref_pdb>  (115) 
d0160a

>  <HIPPO Pose ID>  (115) 
52378

>  <distance_score>  (115) 
0.879849

>  <original ID>  (115) 
DNIYQXIIBSECON-SKDRFNHKSA-N

>  <ref_mols>  (115) 
d0160a,d0254a

>  <SLURM_JOB_NAME>  (115) 
BulkDock.place:Flavi_NS5_RdRp:RdRp_knitwork_primer_grip_n_pocket_impure_split4000_batch005

>  <fragmenstein_runtime>  (115) 
[13.198621273040771]

>  <fragmenstein_error>  (115) 
['']

>  <energy_score>  (115) 
-55.693073

>  <inchikey>  (115) 
DNIYQXIIBSECON-SKDRFNHKSA-N

>  <SLURM_JOB_ID>  (115) 
211037

>  <scratch_subdir>  (115) 
['/opt/xchem-fragalysis-2/maxwin/BulkDock/SCRATCH/211037/C24004-P12']

$$$$
52381
     RDKit          3D

 21 22  0  0  0  0  0  0  0  0999 V2000
  -14.2311  -42.5449  -21.6158 C   0  0  0  0  0  0  0  0  0  0  0  0
  -15.4215  -42.1916  -22.5592 C   0  0  2  0  0  0  0  0  0  0  0  0
  -14.7853  -41.7196  -23.8916 C   0  0  0  0  0  0  0  0  0  0  0  0
  -15.7509  -41.1988  -24.9527 C   0  0  1  0  0  0  0  0  0  0  0  0
  -15.3302  -39.8540  -25.5374 C   0  0  0  0  0  0  0  0  0  0  0  0
  -16.3602  -39.4366  -26.5757 C   0  0  0  0  0  0  0  0  0  0  0  0
  -16.5333  -40.5232  -27.6211 C   0  0  0  0  0  0  0  0  0  0  0  0
  -16.6119  -41.9320  -27.0561 C   0  0  0  0  0  0  0  0  0  0  0  0
  -15.7270  -42.1785  -25.9865 O   0  0  0  0  0  0  0  0  0  0  0  0
  -16.1786  -41.0189  -21.9342 C   0  0  0  0  0  0  0  0  0  0  0  0
  -17.3879  -40.8732  -21.8393 O   0  0  0  0  0  0  0  0  0  0  0  0
  -15.3718  -40.0182  -21.5183 O   0  0  0  0  0  0  0  0  0  0  0  0
  -16.3324  -43.3478  -22.6518 N   0  0  0  0  0  0  0  0  0  0  0  0
  -17.3100  -43.6467  -23.5637 C   0  0  0  0  0  0  0  0  0  0  0  0
  -17.9908  -44.7427  -23.0914 C   0  0  0  0  0  0  0  0  0  0  0  0
  -17.3600  -45.0671  -21.8721 C   0  0  0  0  0  0  0  0  0  0  0  0
  -17.7305  -46.1713  -20.9282 C   0  0  0  0  0  0  0  0  0  0  0  0
  -18.8262  -45.8378  -20.1934 F   0  0  0  0  0  0  0  0  0  0  0  0
  -18.0343  -47.3107  -21.6028 F   0  0  0  0  0  0  0  0  0  0  0  0
  -16.7341  -46.4704  -20.0559 F   0  0  0  0  0  0  0  0  0  0  0  0
  -16.3544  -44.2164  -21.6171 N   0  0  0  0  0  0  0  0  0  0  0  0
  2  1  1  1
  2  3  1  0
  4  3  1  1
  4  5  1  0
  5  6  1  0
  6  7  1  0
  7  8  1  0
  8  9  1  0
  2 10  1  0
 10 11  2  0
 10 12  1  0
  2 13  1  0
 13 14  1  0
 14 15  2  0
 15 16  1  0
 16 17  1  0
 17 18  1  0
 17 19  1  0
 17 20  1  0
 16 21  2  0
  9  4  1  0
 21 13  1  0
M  END
>  <csv_name>  (116) 
RdRp_knitwork_primer_grip_n_pocket_impure_split4000_batch005.csv

>  <exports>  (116) 
['/opt/xchem-fragalysis-2/maxwin/BulkDock/OUTPUTS/RdRp_knitwork_primer_grip_n_pocket_impure_split4000_batch005_211037.sdf']

>  <original SMILES>  (116) 
C[C@](C[C@H]1CCCCO1)(C(=O)O)n1ccc(C(F)(F)F)n1

>  <tags>  (116) 
['Fragmenstein placed']

>  <alias>  (116) 
None

>  <fragmenstein_outcome>  (116) 
['acceptable']

>  <HIPPO Compound ID>  (116) 
24004

>  <name>  (116) 
DNIYQXIIBSECON-SKDRFNHKSA-N

>  <fragmenstein_mode>  (116) 
['expansion']

>  <ref_pdb>  (116) 
d0254a

>  <HIPPO Pose ID>  (116) 
52381

>  <distance_score>  (116) 
0.879904

>  <original ID>  (116) 
DNIYQXIIBSECON-SKDRFNHKSA-N

>  <ref_mols>  (116) 
d0160a,d0254a

>  <SLURM_JOB_NAME>  (116) 
BulkDock.place:Flavi_NS5_RdRp:RdRp_knitwork_primer_grip_n_pocket_impure_split4000_batch005

>  <fragmenstein_runtime>  (116) 
[15.592982292175293]

>  <fragmenstein_error>  (116) 
['']

>  <energy_score>  (116) 
-51.946329

>  <inchikey>  (116) 
DNIYQXIIBSECON-SKDRFNHKSA-N

>  <SLURM_JOB_ID>  (116) 
211037

>  <scratch_subdir>  (116) 
['/opt/xchem-fragalysis-2/maxwin/BulkDock/SCRATCH/211037/C24004-P26']

$$$$
52600
     RDKit          3D

 21 22  0  0  0  0  0  0  0  0999 V2000
  -18.0966  -45.5413  -18.2621 C   0  0  0  0  0  0  0  0  0  0  0  0
  -19.3353  -45.5939  -19.5772 S   0  0  0  0  0  0  0  0  0  0  0  0
  -18.2303  -45.9801  -20.9757 C   0  0  0  0  0  0  0  0  0  0  0  0
  -17.9454  -44.6856  -21.7478 C   0  0  2  0  0  0  0  0  0  0  0  0
  -18.7927  -44.5936  -23.0195 C   0  0  0  0  0  0  0  0  0  0  0  0
  -16.4661  -44.6058  -22.1021 C   0  0  0  0  0  0  0  0  0  0  0  0
  -16.0741  -43.2188  -22.2720 N   0  0  0  0  0  0  0  0  0  0  0  0
  -14.8781  -43.0370  -23.0803 C   0  0  2  0  0  0  0  0  0  0  0  0
  -13.7498  -43.9640  -22.6708 C   0  0  0  0  0  0  0  0  0  0  0  0
  -14.5444  -41.5829  -22.9804 C   0  0  0  0  0  0  0  0  0  0  0  0
  -13.9008  -40.9092  -21.9584 C   0  0  0  0  0  0  0  0  0  0  0  0
  -13.8370  -39.6074  -22.3370 N   0  0  0  0  0  0  0  0  0  0  0  0
  -13.2462  -38.5173  -21.6012 C   0  0  0  0  0  0  0  0  0  0  0  0
  -14.4020  -39.3678  -23.5291 N   0  0  0  0  0  0  0  0  0  0  0  0
  -14.8620  -40.5646  -23.9278 C   0  0  0  0  0  0  0  0  0  0  0  0
  -15.5711  -40.7474  -25.2491 C   0  0  0  0  0  0  0  0  0  0  0  0
  -15.7310  -39.4527  -26.0407 C   0  0  0  0  0  0  0  0  0  0  0  0
  -16.4943  -39.6856  -27.3322 C   0  0  0  0  0  0  0  0  0  0  0  0
  -17.7511  -40.3312  -27.1285 O   0  0  0  0  0  0  0  0  0  0  0  0
  -17.5974  -41.5803  -26.4729 C   0  0  0  0  0  0  0  0  0  0  0  0
  -16.9570  -41.3959  -25.1123 C   0  0  0  0  0  0  0  0  0  0  0  0
  1  2  1  0
  2  3  1  0
  3  4  1  0
  4  5  1  6
  4  6  1  0
  6  7  1  0
  7  8  1  0
  8  9  1  1
  8 10  1  0
 10 11  2  0
 11 12  1  0
 12 13  1  0
 12 14  1  0
 14 15  2  0
 15 16  1  0
 16 17  1  0
 17 18  1  0
 18 19  1  0
 19 20  1  0
 20 21  1  0
 15 10  1  0
 21 16  1  0
M  END
>  <csv_name>  (117) 
RdRp_knitwork_primer_grip_n_pocket_impure_split4000_batch005.csv

>  <exports>  (117) 
['/opt/xchem-fragalysis-2/maxwin/BulkDock/OUTPUTS/RdRp_knitwork_primer_grip_n_pocket_impure_split4000_batch005_211037.sdf']

>  <original SMILES>  (117) 
CSC[C@H](C)CN[C@H](C)c1cn(C)nc1C1CCOCC1

>  <tags>  (117) 
['Fragmenstein placed']

>  <alias>  (117) 
None

>  <fragmenstein_outcome>  (117) 
['acceptable']

>  <HIPPO Compound ID>  (117) 
24397

>  <name>  (117) 
NICHNLZHGMPFGC-CHWSQXEVSA-N

>  <fragmenstein_mode>  (117) 
['expansion']

>  <ref_pdb>  (117) 
d0160a

>  <HIPPO Pose ID>  (117) 
52600

>  <distance_score>  (117) 
0.727262

>  <original ID>  (117) 
NICHNLZHGMPFGC-CHWSQXEVSA-N

>  <ref_mols>  (117) 
d0160a,d0254a

>  <SLURM_JOB_NAME>  (117) 
BulkDock.place:Flavi_NS5_RdRp:RdRp_knitwork_primer_grip_n_pocket_impure_split4000_batch005

>  <fragmenstein_runtime>  (117) 
[104.23955249786377]

>  <fragmenstein_error>  (117) 
['']

>  <energy_score>  (117) 
-64.459035

>  <inchikey>  (117) 
NICHNLZHGMPFGC-CHWSQXEVSA-N

>  <SLURM_JOB_ID>  (117) 
211037

>  <scratch_subdir>  (117) 
['/opt/xchem-fragalysis-2/maxwin/BulkDock/SCRATCH/211037/C24397-P12']

$$$$
52605
     RDKit          3D

 21 22  0  0  0  0  0  0  0  0999 V2000
  -18.0945  -45.5686  -18.4726 C   0  0  0  0  0  0  0  0  0  0  0  0
  -19.2166  -45.8140  -19.8688 S   0  0  0  0  0  0  0  0  0  0  0  0
  -17.9797  -45.9960  -21.1974 C   0  0  0  0  0  0  0  0  0  0  0  0
  -17.7596  -44.6336  -21.8735 C   0  0  2  0  0  0  0  0  0  0  0  0
  -18.6352  -44.4954  -23.1221 C   0  0  0  0  0  0  0  0  0  0  0  0
  -16.2781  -44.4198  -22.2117 C   0  0  0  0  0  0  0  0  0  0  0  0
  -16.0017  -42.9869  -22.2254 N   0  0  0  0  0  0  0  0  0  0  0  0
  -14.5964  -42.6621  -22.4559 C   0  0  2  0  0  0  0  0  0  0  0  0
  -13.7576  -43.1261  -21.2515 C   0  0  0  0  0  0  0  0  0  0  0  0
  -14.4909  -41.1722  -22.6596 C   0  0  0  0  0  0  0  0  0  0  0  0
  -14.0775  -40.2513  -21.7102 C   0  0  0  0  0  0  0  0  0  0  0  0
  -14.0075  -39.0508  -22.3288 N   0  0  0  0  0  0  0  0  0  0  0  0
  -13.6023  -37.7953  -21.7465 C   0  0  0  0  0  0  0  0  0  0  0  0
  -14.3575  -39.0968  -23.6152 N   0  0  0  0  0  0  0  0  0  0  0  0
  -14.7130  -40.3762  -23.8380 C   0  0  0  0  0  0  0  0  0  0  0  0
  -15.1780  -40.7553  -25.2381 C   0  0  0  0  0  0  0  0  0  0  0  0
  -15.8970  -39.5941  -25.9448 C   0  0  0  0  0  0  0  0  0  0  0  0
  -16.3794  -39.9848  -27.3311 C   0  0  0  0  0  0  0  0  0  0  0  0
  -17.2134  -41.1395  -27.3225 O   0  0  0  0  0  0  0  0  0  0  0  0
  -16.5690  -42.2540  -26.7245 C   0  0  0  0  0  0  0  0  0  0  0  0
  -16.1069  -41.9674  -25.3087 C   0  0  0  0  0  0  0  0  0  0  0  0
  1  2  1  0
  2  3  1  0
  3  4  1  0
  4  5  1  6
  4  6  1  0
  6  7  1  0
  7  8  1  0
  8  9  1  1
  8 10  1  0
 10 11  2  0
 11 12  1  0
 12 13  1  0
 12 14  1  0
 14 15  2  0
 15 16  1  0
 16 17  1  0
 17 18  1  0
 18 19  1  0
 19 20  1  0
 20 21  1  0
 15 10  1  0
 21 16  1  0
M  END
>  <csv_name>  (118) 
RdRp_knitwork_primer_grip_n_pocket_impure_split4000_batch005.csv

>  <exports>  (118) 
['/opt/xchem-fragalysis-2/maxwin/BulkDock/OUTPUTS/RdRp_knitwork_primer_grip_n_pocket_impure_split4000_batch005_211037.sdf']

>  <original SMILES>  (118) 
CSC[C@H](C)CN[C@H](C)c1cn(C)nc1C1CCOCC1

>  <tags>  (118) 
['Fragmenstein placed']

>  <alias>  (118) 
None

>  <fragmenstein_outcome>  (118) 
['acceptable']

>  <HIPPO Compound ID>  (118) 
24397

>  <name>  (118) 
NICHNLZHGMPFGC-CHWSQXEVSA-N

>  <fragmenstein_mode>  (118) 
['expansion']

>  <ref_pdb>  (118) 
d0254a

>  <HIPPO Pose ID>  (118) 
52605

>  <distance_score>  (118) 
0.714845

>  <original ID>  (118) 
NICHNLZHGMPFGC-CHWSQXEVSA-N

>  <ref_mols>  (118) 
d0160a,d0254a

>  <SLURM_JOB_NAME>  (118) 
BulkDock.place:Flavi_NS5_RdRp:RdRp_knitwork_primer_grip_n_pocket_impure_split4000_batch005

>  <fragmenstein_runtime>  (118) 
[117.06464958190918]

>  <fragmenstein_error>  (118) 
['']

>  <energy_score>  (118) 
-64.283065

>  <inchikey>  (118) 
NICHNLZHGMPFGC-CHWSQXEVSA-N

>  <SLURM_JOB_ID>  (118) 
211037

>  <scratch_subdir>  (118) 
['/opt/xchem-fragalysis-2/maxwin/BulkDock/SCRATCH/211037/C24397-P26']

$$$$
53250
     RDKit          3D

 22 23  0  0  0  0  0  0  0  0999 V2000
  -17.8792  -46.9582  -21.1507 C   0  0  0  0  0  0  0  0  0  0  0  0
  -18.7687  -45.8394  -20.7310 C   0  0  0  0  0  0  0  0  0  0  0  0
  -19.1563  -44.8789  -21.5456 N   0  0  0  0  0  0  0  0  0  0  0  0
  -20.0580  -44.0228  -20.8946 C   0  0  0  0  0  0  0  0  0  0  0  0
  -20.7271  -42.9311  -21.7157 C   0  0  1  0  0  0  0  0  0  0  0  0
  -21.4847  -41.8972  -20.8925 C   0  0  0  0  0  0  0  0  0  0  0  0
  -19.7189  -42.2342  -22.4598 O   0  0  0  0  0  0  0  0  0  0  0  0
  -19.8324  -42.2810  -23.8175 C   0  0  0  0  0  0  0  0  0  0  0  0
  -20.8754  -42.0780  -24.4264 O   0  0  0  0  0  0  0  0  0  0  0  0
  -18.4863  -42.6216  -24.4712 C   0  0  0  0  0  0  0  0  0  0  0  0
  -17.6513  -43.2042  -23.4365 N   0  0  0  0  0  0  0  0  0  0  0  0
  -16.1953  -42.6042  -23.2127 C   0  0  0  0  0  0  0  0  0  0  0  0
  -16.2701  -41.3858  -22.9652 O   0  0  0  0  0  0  0  0  0  0  0  0
  -16.2393  -43.6344  -22.0244 N   0  0  0  0  0  0  0  0  0  0  0  0
  -15.1993  -43.7193  -21.0829 C   0  0  0  0  0  0  0  0  0  0  0  0
  -15.4149  -44.5292  -19.9611 C   0  0  0  0  0  0  0  0  0  0  0  0
  -14.4922  -44.5777  -18.9214 C   0  0  0  0  0  0  0  0  0  0  0  0
  -13.3377  -43.8115  -19.0046 C   0  0  0  0  0  0  0  0  0  0  0  0
  -13.1064  -43.0196  -20.1282 C   0  0  0  0  0  0  0  0  0  0  0  0
  -14.0324  -42.9740  -21.1709 C   0  0  0  0  0  0  0  0  0  0  0  0
  -20.2307  -44.3150  -19.5532 C   0  0  0  0  0  0  0  0  0  0  0  0
  -19.3212  -45.6983  -19.1139 S   0  0  0  0  0  0  0  0  0  0  0  0
  1  2  1  0
  2  3  2  0
  3  4  1  0
  4  5  1  0
  5  6  1  1
  5  7  1  0
  7  8  1  0
  8  9  2  0
  8 10  1  0
 10 11  1  0
 11 12  1  0
 12 13  2  0
 12 14  1  0
 14 15  1  0
 15 16  2  0
 16 17  1  0
 17 18  2  0
 18 19  1  0
 19 20  2  0
  4 21  2  0
 21 22  1  0
 22  2  1  0
 20 15  1  0
M  END
>  <csv_name>  (119) 
RdRp_knitwork_primer_grip_n_pocket_impure_split4000_batch005.csv

>  <exports>  (119) 
['/opt/xchem-fragalysis-2/maxwin/BulkDock/OUTPUTS/RdRp_knitwork_primer_grip_n_pocket_impure_split4000_batch005_211037.sdf']

>  <original SMILES>  (119) 
Cc1nc([C@@H](C)OC(=O)CNC(=O)Nc2ccccc2)cs1

>  <tags>  (119) 
['Fragmenstein placed']

>  <alias>  (119) 
None

>  <fragmenstein_outcome>  (119) 
['acceptable']

>  <HIPPO Compound ID>  (119) 
14824

>  <name>  (119) 
KVXZHYOQOIAXDC-SNVBAGLBSA-N

>  <fragmenstein_mode>  (119) 
['expansion']

>  <ref_pdb>  (119) 
d0472a

>  <HIPPO Pose ID>  (119) 
53250

>  <distance_score>  (119) 
0.820739

>  <original ID>  (119) 
KVXZHYOQOIAXDC-SNVBAGLBSA-N

>  <ref_mols>  (119) 
d0264a,d0472a

>  <SLURM_JOB_NAME>  (119) 
BulkDock.place:Flavi_NS5_RdRp:RdRp_knitwork_primer_grip_n_pocket_impure_split4000_batch005

>  <fragmenstein_runtime>  (119) 
[3.248471260070801]

>  <fragmenstein_error>  (119) 
['']

>  <energy_score>  (119) 
-9.024292

>  <inchikey>  (119) 
KVXZHYOQOIAXDC-SNVBAGLBSA-N

>  <SLURM_JOB_ID>  (119) 
211037

>  <scratch_subdir>  (119) 
['/opt/xchem-fragalysis-2/maxwin/BulkDock/SCRATCH/211037/C14824-P42']

$$$$
53275
     RDKit          3D

 22 23  0  0  0  0  0  0  0  0999 V2000
  -20.6741  -43.8712  -21.3272 C   0  0  0  0  0  0  0  0  0  0  0  0
  -19.6588  -44.3983  -20.3888 C   0  0  0  0  0  0  0  0  0  0  0  0
  -18.4015  -44.6501  -20.8992 N   0  0  0  0  0  0  0  0  0  0  0  0
  -17.5476  -44.8348  -19.9092 C   0  0  0  0  0  0  0  0  0  0  0  0
  -16.0926  -44.6173  -20.0390 C   0  0  0  0  0  0  0  0  0  0  0  0
  -15.5513  -44.2668  -21.2759 C   0  0  0  0  0  0  0  0  0  0  0  0
  -14.2508  -43.7761  -21.3256 C   0  0  0  0  0  0  0  0  0  0  0  0
  -13.5306  -43.6395  -20.1472 C   0  0  0  0  0  0  0  0  0  0  0  0
  -14.1238  -44.0437  -18.9682 C   0  0  0  0  0  0  0  0  0  0  0  0
  -15.3715  -44.5533  -18.8874 N   0  0  0  0  0  0  0  0  0  0  0  0
  -18.2814  -45.0845  -18.3671 S   0  0  0  0  0  0  0  0  0  0  0  0
  -19.7861  -44.5733  -19.0169 C   0  0  0  0  0  0  0  0  0  0  0  0
  -20.9239  -44.1306  -18.1592 C   0  0  0  0  0  0  0  0  0  0  0  0
  -20.9617  -43.8986  -16.9330 O   0  0  0  0  0  0  0  0  0  0  0  0
  -21.2732  -45.5836  -18.1605 N   0  0  0  0  0  0  0  0  0  0  0  0
  -22.5037  -46.1052  -17.5327 C   0  0  2  0  0  0  0  0  0  0  0  0
  -23.6092  -45.0736  -17.3567 C   0  0  0  0  0  0  0  0  0  0  0  0
  -22.2282  -47.0120  -16.3165 C   0  0  1  0  0  0  0  0  0  0  0  0
  -23.1882  -46.8600  -15.1374 C   0  0  0  0  0  0  0  0  0  0  0  0
  -22.2581  -48.4484  -16.7888 C   0  0  0  0  0  0  0  0  0  0  0  0
  -21.2987  -49.1940  -16.8451 O   0  0  0  0  0  0  0  0  0  0  0  0
  -23.4559  -48.8766  -17.2241 O   0  0  0  0  0  0  0  0  0  0  0  0
  1  2  1  0
  2  3  1  0
  3  4  2  0
  4  5  1  0
  5  6  2  0
  6  7  1  0
  7  8  2  0
  8  9  1  0
  9 10  2  0
  4 11  1  0
 11 12  1  0
 12 13  1  0
 13 14  2  0
 13 15  1  0
 15 16  1  0
 16 17  1  1
 16 18  1  0
 18 19  1  1
 18 20  1  0
 20 21  2  0
 20 22  1  0
 12  2  2  0
 10  5  1  0
M  END
>  <csv_name>  (120) 
RdRp_knitwork_primer_grip_n_pocket_impure_split4000_batch005.csv

>  <exports>  (120) 
['/opt/xchem-fragalysis-2/maxwin/BulkDock/OUTPUTS/RdRp_knitwork_primer_grip_n_pocket_impure_split4000_batch005_211037.sdf']

>  <original SMILES>  (120) 
Cc1nc(-c2ccccn2)sc1C(=O)N[C@H](C)[C@@H](C)C(=O)O

>  <tags>  (120) 
['Fragmenstein placed']

>  <alias>  (120) 
None

>  <fragmenstein_outcome>  (120) 
['acceptable']

>  <HIPPO Compound ID>  (120) 
10208

>  <name>  (120) 
LKTUJWQNQDRKOS-RKDXNWHRSA-N

>  <fragmenstein_mode>  (120) 
['expansion']

>  <ref_pdb>  (120) 
d0264a

>  <HIPPO Pose ID>  (120) 
53275

>  <distance_score>  (120) 
0.972097

>  <original ID>  (120) 
LKTUJWQNQDRKOS-RKDXNWHRSA-N

>  <ref_mols>  (120) 
d0264a,d0472a

>  <SLURM_JOB_NAME>  (120) 
BulkDock.place:Flavi_NS5_RdRp:RdRp_knitwork_primer_grip_n_pocket_impure_split4000_batch005

>  <fragmenstein_runtime>  (120) 
[5.017554998397827]

>  <fragmenstein_error>  (120) 
['']

>  <energy_score>  (120) 
-124.077214

>  <inchikey>  (120) 
LKTUJWQNQDRKOS-RKDXNWHRSA-N

>  <SLURM_JOB_ID>  (120) 
211037

>  <scratch_subdir>  (120) 
['/opt/xchem-fragalysis-2/maxwin/BulkDock/SCRATCH/211037/C10208-P28']

$$$$
53277
     RDKit          3D

 22 23  0  0  0  0  0  0  0  0999 V2000
  -20.8473  -43.6070  -21.2710 C   0  0  0  0  0  0  0  0  0  0  0  0
  -19.7900  -44.2007  -20.4109 C   0  0  0  0  0  0  0  0  0  0  0  0
  -18.5560  -44.4577  -20.9832 N   0  0  0  0  0  0  0  0  0  0  0  0
  -17.6654  -44.7243  -20.0423 C   0  0  0  0  0  0  0  0  0  0  0  0
  -16.2028  -44.5948  -20.2251 C   0  0  0  0  0  0  0  0  0  0  0  0
  -15.6860  -44.1908  -21.4553 C   0  0  0  0  0  0  0  0  0  0  0  0
  -14.3550  -43.7901  -21.5284 C   0  0  0  0  0  0  0  0  0  0  0  0
  -13.5819  -43.7873  -20.3763 C   0  0  0  0  0  0  0  0  0  0  0  0
  -14.1531  -44.2444  -19.2060 C   0  0  0  0  0  0  0  0  0  0  0  0
  -15.4270  -44.6794  -19.1100 N   0  0  0  0  0  0  0  0  0  0  0  0
  -18.3386  -44.9948  -18.4765 S   0  0  0  0  0  0  0  0  0  0  0  0
  -19.8627  -44.4469  -19.0466 C   0  0  0  0  0  0  0  0  0  0  0  0
  -20.9890  -44.0862  -18.1374 C   0  0  0  0  0  0  0  0  0  0  0  0
  -20.9904  -43.8717  -16.9086 O   0  0  0  0  0  0  0  0  0  0  0  0
  -21.2468  -45.5541  -18.1505 N   0  0  0  0  0  0  0  0  0  0  0  0
  -22.4034  -46.1773  -17.4941 C   0  0  2  0  0  0  0  0  0  0  0  0
  -23.6501  -45.2975  -17.4930 C   0  0  0  0  0  0  0  0  0  0  0  0
  -22.0613  -46.9090  -16.1810 C   0  0  1  0  0  0  0  0  0  0  0  0
  -22.5787  -46.2101  -14.9258 C   0  0  0  0  0  0  0  0  0  0  0  0
  -22.6516  -48.3051  -16.2486 C   0  0  0  0  0  0  0  0  0  0  0  0
  -23.5070  -48.7675  -15.5145 O   0  0  0  0  0  0  0  0  0  0  0  0
  -22.1750  -49.0346  -17.2715 O   0  0  0  0  0  0  0  0  0  0  0  0
  1  2  1  0
  2  3  1  0
  3  4  2  0
  4  5  1  0
  5  6  2  0
  6  7  1  0
  7  8  2  0
  8  9  1  0
  9 10  2  0
  4 11  1  0
 11 12  1  0
 12 13  1  0
 13 14  2  0
 13 15  1  0
 15 16  1  0
 16 17  1  1
 16 18  1  0
 18 19  1  1
 18 20  1  0
 20 21  2  0
 20 22  1  0
 12  2  2  0
 10  5  1  0
M  END
>  <csv_name>  (121) 
RdRp_knitwork_primer_grip_n_pocket_impure_split4000_batch005.csv

>  <exports>  (121) 
['/opt/xchem-fragalysis-2/maxwin/BulkDock/OUTPUTS/RdRp_knitwork_primer_grip_n_pocket_impure_split4000_batch005_211037.sdf']

>  <original SMILES>  (121) 
Cc1nc(-c2ccccn2)sc1C(=O)N[C@H](C)[C@@H](C)C(=O)O

>  <tags>  (121) 
['Fragmenstein placed']

>  <alias>  (121) 
None

>  <fragmenstein_outcome>  (121) 
['acceptable']

>  <HIPPO Compound ID>  (121) 
10208

>  <name>  (121) 
LKTUJWQNQDRKOS-RKDXNWHRSA-N

>  <fragmenstein_mode>  (121) 
['expansion']

>  <ref_pdb>  (121) 
d0472a

>  <HIPPO Pose ID>  (121) 
53277

>  <distance_score>  (121) 
0.983616

>  <original ID>  (121) 
LKTUJWQNQDRKOS-RKDXNWHRSA-N

>  <ref_mols>  (121) 
d0264a,d0472a

>  <SLURM_JOB_NAME>  (121) 
BulkDock.place:Flavi_NS5_RdRp:RdRp_knitwork_primer_grip_n_pocket_impure_split4000_batch005

>  <fragmenstein_runtime>  (121) 
[4.406028747558594]

>  <fragmenstein_error>  (121) 
['']

>  <energy_score>  (121) 
-127.857161

>  <inchikey>  (121) 
LKTUJWQNQDRKOS-RKDXNWHRSA-N

>  <SLURM_JOB_ID>  (121) 
211037

>  <scratch_subdir>  (121) 
['/opt/xchem-fragalysis-2/maxwin/BulkDock/SCRATCH/211037/C10208-P42']

$$$$
53652
     RDKit          3D

 13 14  0  0  0  0  0  0  0  0999 V2000
  -18.0025  -38.8496  -26.7209 S   0  0  0  0  0  0  0  0  0  0  0  0
  -16.9872  -40.0246  -26.1198 C   0  0  0  0  0  0  0  0  0  0  0  0
  -15.8885  -39.7330  -25.1876 C   0  0  0  0  0  0  0  0  0  0  0  0
  -15.3155  -40.7299  -24.5022 C   0  0  0  0  0  0  0  0  0  0  0  0
  -14.4192  -40.4469  -23.3686 C   0  0  0  0  0  0  0  0  0  0  0  0
  -14.1889  -41.3833  -22.3645 C   0  0  0  0  0  0  0  0  0  0  0  0
  -13.3450  -41.0482  -21.3076 C   0  0  0  0  0  0  0  0  0  0  0  0
  -12.7714  -39.7862  -21.2610 C   0  0  0  0  0  0  0  0  0  0  0  0
  -13.0710  -38.8984  -22.2716 C   0  0  0  0  0  0  0  0  0  0  0  0
  -13.8760  -39.1985  -23.3132 N   0  0  0  0  0  0  0  0  0  0  0  0
  -15.7024  -42.0929  -24.9379 C   0  0  0  0  0  0  0  0  0  0  0  0
  -16.6061  -42.3934  -25.8180 N   0  0  0  0  0  0  0  0  0  0  0  0
  -17.2295  -41.3404  -26.4080 N   0  0  0  0  0  0  0  0  0  0  0  0
  1  2  2  0
  2  3  1  0
  3  4  2  0
  4  5  1  0
  5  6  2  0
  6  7  1  0
  7  8  2  0
  8  9  1  0
  9 10  2  0
  4 11  1  0
 11 12  2  0
 12 13  1  0
 13  2  1  0
 10  5  1  0
M  END
>  <csv_name>  (122) 
RdRp_knitwork_primer_grip_n_pocket_impure_split4000_batch004.csv

>  <exports>  (122) 
['/opt/xchem-fragalysis-2/maxwin/BulkDock/OUTPUTS/RdRp_knitwork_primer_grip_n_pocket_impure_split4000_batch004_211036.sdf']

>  <original SMILES>  (122) 
S=c1cc(-c2ccccn2)cn[nH]1

>  <tags>  (122) 
['Fragmenstein placed']

>  <alias>  (122) 
None

>  <fragmenstein_outcome>  (122) 
['acceptable']

>  <HIPPO Compound ID>  (122) 
15385

>  <name>  (122) 
PIWYUWMHQMXWEY-UHFFFAOYSA-N

>  <fragmenstein_mode>  (122) 
['expansion']

>  <ref_pdb>  (122) 
d0160a

>  <HIPPO Pose ID>  (122) 
53652

>  <distance_score>  (122) 
0.977775

>  <original ID>  (122) 
PIWYUWMHQMXWEY-UHFFFAOYSA-N

>  <ref_mols>  (122) 
d0160a,d0191a

>  <SLURM_JOB_NAME>  (122) 
BulkDock.place:Flavi_NS5_RdRp:RdRp_knitwork_primer_grip_n_pocket_impure_split4000_batch004

>  <fragmenstein_runtime>  (122) 
[1.5319530963897705]

>  <fragmenstein_error>  (122) 
['']

>  <energy_score>  (122) 
-16.7069

>  <inchikey>  (122) 
PIWYUWMHQMXWEY-UHFFFAOYSA-N

>  <SLURM_JOB_ID>  (122) 
211036

>  <scratch_subdir>  (122) 
['/opt/xchem-fragalysis-2/maxwin/BulkDock/SCRATCH/211036/C15385-P12']

$$$$
55140
     RDKit          3D

 11 12  0  0  0  0  0  0  0  0999 V2000
  -15.3054  -44.7297  -21.1642 C   0  0  0  0  0  0  0  0  0  0  0  0
  -14.5560  -43.6147  -21.5105 C   0  0  0  0  0  0  0  0  0  0  0  0
  -13.7686  -43.0043  -20.5330 C   0  0  0  0  0  0  0  0  0  0  0  0
  -13.0322  -41.7773  -20.8209 C   0  0  0  0  0  0  0  0  0  0  0  0
  -13.3224  -40.7019  -21.6423 C   0  0  0  0  0  0  0  0  0  0  0  0
  -12.3431  -39.7413  -21.5814 N   0  0  0  0  0  0  0  0  0  0  0  0
  -11.4766  -40.1978  -20.7086 C   0  0  0  0  0  0  0  0  0  0  0  0
  -11.8175  -41.4437  -20.2632 N   0  0  0  0  0  0  0  0  0  0  0  0
  -13.7697  -43.5516  -19.2490 C   0  0  0  0  0  0  0  0  0  0  0  0
  -14.5574  -44.6652  -18.9993 C   0  0  0  0  0  0  0  0  0  0  0  0
  -15.3133  -45.2828  -19.9305 N   0  0  0  0  0  0  0  0  0  0  0  0
  1  2  2  0
  2  3  1  0
  3  4  1  0
  4  5  2  0
  5  6  1  0
  6  7  2  0
  7  8  1  0
  3  9  2  0
  9 10  1  0
 10 11  2  0
 11  1  1  0
  8  4  1  0
M  END
>  <csv_name>  (123) 
RdRp_knitwork_primer_grip_n_pocket_impure_split4000_batch000.csv

>  <exports>  (123) 
['/opt/xchem-fragalysis-2/maxwin/BulkDock/OUTPUTS/RdRp_knitwork_primer_grip_n_pocket_impure_split4000_batch000_211032.sdf']

>  <original SMILES>  (123) 
c1cc(-c2cnc[nH]2)ccn1

>  <tags>  (123) 
['Fragmenstein placed']

>  <alias>  (123) 
None

>  <fragmenstein_outcome>  (123) 
['acceptable']

>  <HIPPO Compound ID>  (123) 
8715

>  <name>  (123) 
AJQQGJNKKDEODG-UHFFFAOYSA-N

>  <fragmenstein_mode>  (123) 
['expansion']

>  <ref_pdb>  (123) 
d0472a

>  <HIPPO Pose ID>  (123) 
55140

>  <distance_score>  (123) 
0.859558

>  <original ID>  (123) 
AJQQGJNKKDEODG-UHFFFAOYSA-N

>  <ref_mols>  (123) 
d0472a,z0875c

>  <SLURM_JOB_NAME>  (123) 
BulkDock.place:Flavi_NS5_RdRp:RdRp_knitwork_primer_grip_n_pocket_impure_split4000_batch000

>  <fragmenstein_runtime>  (123) 
[1.4302153587341309]

>  <fragmenstein_error>  (123) 
['']

>  <energy_score>  (123) 
-11.85689

>  <inchikey>  (123) 
AJQQGJNKKDEODG-UHFFFAOYSA-N

>  <SLURM_JOB_ID>  (123) 
211032

>  <scratch_subdir>  (123) 
['/opt/xchem-fragalysis-2/maxwin/BulkDock/SCRATCH/211032/C8715-P42']

$$$$
