ver_1.2
     RDKit          3D

 22 24  0  0  0  0  0  0  0  0999 V2000
   -4.0589   -0.9888   -0.3047 C   0  0  0  0  0  0  0  0  0  0  0  0
   -2.6596   -0.7753   -0.4930 N   0  0  0  0  0  0  0  0  0  0  0  0
   -2.5449   -0.1763   -1.7769 C   0  0  0  0  0  0  0  0  0  0  0  0
   -2.5959    1.1986   -1.8299 C   0  0  0  0  0  0  0  0  0  0  0  0
   -2.4966    1.9131   -3.0169 C   0  0  0  0  0  0  0  0  0  0  0  0
   -2.3415    1.2111   -4.1788 C   0  0  0  0  0  0  0  0  0  0  0  0
   -2.2923   -0.1322   -4.1212 N   0  0  0  0  0  0  0  0  0  0  0  0
   -2.3863   -0.8267   -2.9906 C   0  0  0  0  0  0  0  0  0  0  0  0
   -1.3281   -1.1432    0.5737 S   0  0  0  0  0  0  0  0  0  0  0  0
   -0.6814    0.2122    0.8483 O   0  0  0  0  0  0  0  0  0  0  0  0
   -1.9453   -1.6480    1.8452 O   0  0  0  0  0  0  0  0  0  0  0  0
   -0.2239   -2.2864   -0.1448 C   0  0  0  0  0  0  0  0  0  0  0  0
    0.9277   -2.6541    0.7294 C   0  0  0  0  0  0  0  0  0  0  0  0
    1.8376   -1.6095    1.1732 C   0  0  0  0  0  0  0  0  0  0  0  0
    2.5747   -0.8038    0.1824 C   0  0  0  0  0  0  0  0  0  0  0  0
    2.9515    0.4365    0.8827 C   0  0  0  0  0  0  0  0  0  0  0  0
    3.7849    1.4921    0.5910 C   0  0  0  0  0  0  0  0  0  0  0  0
    3.9565    2.5430    1.4401 C   0  0  0  0  0  0  0  0  0  0  0  0
    3.3070    2.6195    2.6484 C   0  0  0  0  0  0  0  0  0  0  0  0
    2.4588    1.5805    2.9839 C   0  0  0  0  0  0  0  0  0  0  0  0
    2.3055    0.5267    2.0999 C   0  0  0  0  0  0  0  0  0  0  0  0
    1.4506   -0.6889    2.2544 C   0  0  0  0  0  0  0  0  0  0  0  0
  1  2  1  0
  2  3  1  0
  3  4  2  0
  4  5  1  0
  5  6  2  0
  6  7  1  0
  7  8  2  0
  2  9  1  0
  9 10  2  0
  9 11  2  0
  9 12  1  0
 12 13  1  0
 13 14  1  0
 14 15  1  0
 15 16  1  0
 16 17  2  0
 17 18  1  0
 18 19  2  0
 19 20  1  0
 20 21  2  0
 21 22  1  0
  8  3  1  0
 22 14  1  0
 21 16  1  0
M  END
>  <ref_url>  (1) 
https://github.com/mwinokan/BulkDock

>  <submitter_name>  (1) 
Max Winokan

>  <submitter_email>  (1) 
max.winokan@diamond.ac.uk

>  <submitter_institution>  (1) 
DLS

>  <generation_date>  (1) 
2024-12-02

>  <method>  (1) 
Knitwork_Thumb_pure

>  <SLURM_JOB_ID>  (1) 
SLURM_JOB_ID

>  <SLURM_JOB_NAME>  (1) 
SLURM_JOB_NAME

>  <csv_name>  (1) 
csv_name

>  <scratch_subdir>  (1) 
scratch_subdir

>  <fragmenstein_runtime>  (1) 
fragmenstein_runtime

>  <fragmenstein_outcome>  (1) 
fragmenstein_outcome

>  <fragmenstein_mode>  (1) 
fragmenstein_mode

>  <fragmenstein_error>  (1) 
fragmenstein_error

>  <exports>  (1) 
exports

>  <HIPPO Pose ID>  (1) 
HIPPO Pose ID

>  <HIPPO Compound ID>  (1) 
HIPPO Compound ID

>  <smiles>  (1) 
smiles

>  <ref_pdb>  (1) 
protein reference

>  <ref_mols>  (1) 
fragment inspirations

>  <original ID>  (1) 
original ID

>  <compound inchikey>  (1) 
compound inchikey

$$$$
34833
     RDKit          3D

 22 24  0  0  0  0  0  0  0  0999 V2000
   -2.2644  -74.9138  -19.3903 C   0  0  0  0  0  0  0  0  0  0  0  0
   -2.9916  -73.7280  -18.8831 N   0  0  0  0  0  0  0  0  0  0  0  0
   -3.0663  -72.5497  -19.7232 C   0  0  0  0  0  0  0  0  0  0  0  0
   -3.3487  -71.2850  -19.2118 C   0  0  0  0  0  0  0  0  0  0  0  0
   -3.4888  -70.1894  -20.0642 C   0  0  0  0  0  0  0  0  0  0  0  0
   -3.2434  -70.3629  -21.4084 C   0  0  0  0  0  0  0  0  0  0  0  0
   -2.9207  -71.5515  -21.9462 N   0  0  0  0  0  0  0  0  0  0  0  0
   -2.8501  -72.6090  -21.1002 C   0  0  0  0  0  0  0  0  0  0  0  0
   -4.1990  -74.0472  -17.7270 S   0  0  0  0  0  0  0  0  0  0  0  0
   -3.8324  -75.2709  -17.0398 O   0  0  0  0  0  0  0  0  0  0  0  0
   -4.4752  -72.8621  -16.9443 O   0  0  0  0  0  0  0  0  0  0  0  0
   -5.6555  -74.4407  -18.6952 C   0  0  0  0  0  0  0  0  0  0  0  0
   -6.2299  -73.3508  -19.5997 C   0  0  0  0  0  0  0  0  0  0  0  0
   -6.6042  -72.0046  -18.9356 C   0  0  0  0  0  0  0  0  0  0  0  0
   -7.0316  -70.9663  -19.9978 C   0  0  0  0  0  0  0  0  0  0  0  0
   -8.5176  -71.0610  -19.9440 C   0  0  0  0  0  0  0  0  0  0  0  0
   -9.4308  -70.5675  -20.8574 C   0  0  0  0  0  0  0  0  0  0  0  0
  -10.7874  -70.7572  -20.5952 C   0  0  0  0  0  0  0  0  0  0  0  0
  -11.2068  -71.4173  -19.4290 C   0  0  0  0  0  0  0  0  0  0  0  0
  -10.2765  -71.8970  -18.5075 C   0  0  0  0  0  0  0  0  0  0  0  0
   -8.9348  -71.7172  -18.7839 C   0  0  0  0  0  0  0  0  0  0  0  0
   -7.7732  -72.1299  -17.9441 C   0  0  0  0  0  0  0  0  0  0  0  0
  1  2  1  0
  2  3  1  0
  3  4  2  0
  4  5  1  0
  5  6  2  0
  6  7  1  0
  7  8  2  0
  2  9  1  0
  9 10  2  0
  9 11  2  0
  9 12  1  0
 12 13  1  0
 13 14  1  0
 14 15  1  0
 15 16  1  0
 16 17  2  0
 17 18  1  0
 18 19  2  0
 19 20  1  0
 20 21  2  0
 21 22  1  0
  8  3  1  0
 22 14  1  0
 21 16  1  0
M  END
>  <ref_mols>  (1) 
d0174a,d0279a

>  <fragmenstein_runtime>  (1) 
[3.6874194145202637]

>  <scratch_subdir>  (1) 
['/opt/xchem-fragalysis-2/maxwin/BulkDock/SCRATCH/211011/C970-P17']

>  <tags>  (1) 
['Fragmenstein placed']

>  <fragmenstein_mode>  (1) 
['expansion']

>  <SLURM_JOB_NAME>  (1) 
BulkDock.place:Flavi_NS5_RdRp:RdRp_knitwork_thumb_site_2_pure_split4000_batch001

>  <HIPPO Pose ID>  (1) 
34833

>  <exports>  (1) 
['/opt/xchem-fragalysis-2/maxwin/BulkDock/OUTPUTS/RdRp_knitwork_thumb_site_2_pure_split4000_batch001_211011.sdf', '/opt/xchem-fragalysis-2/maxwin/BulkDock/OUTPUTS/RdRp_knitwork_thumb_site_2_pure_fragalysis.sdf']

>  <inchikey>  (1) 
IOQRFKORLYPZRB-UHFFFAOYSA-N

>  <csv_name>  (1) 
RdRp_knitwork_thumb_site_2_pure_split4000_batch001.csv

>  <alias>  (1) 
None

>  <fragmenstein_error>  (1) 
['']

>  <SLURM_JOB_ID>  (1) 
211011

>  <original SMILES>  (1) 
CN(c1cccnc1)S(=O)(=O)CCC1Cc2ccccc2C1

>  <name>  (1) 
IOQRFKORLYPZRB-UHFFFAOYSA-N

>  <ref_pdb>  (1) 
d0174a

>  <original ID>  (1) 
IOQRFKORLYPZRB-UHFFFAOYSA-N

>  <energy_score>  (1) 
-64.106416

>  <fragmenstein_outcome>  (1) 
['acceptable']

>  <HIPPO Compound ID>  (1) 
970

>  <distance_score>  (1) 
0.999439

$$$$
34914
     RDKit          3D

 23 25  0  0  0  0  0  0  0  0999 V2000
  -14.5439  -69.4104  -22.7753 C   0  0  0  0  0  0  0  0  0  0  0  0
  -15.0748  -69.6071  -21.3715 C   0  0  0  0  0  0  0  0  0  0  0  0
  -13.7978  -69.7749  -20.1308 S   0  0  0  0  0  0  0  0  0  0  0  0
  -12.9423  -68.6163  -20.1662 O   0  0  0  0  0  0  0  0  0  0  0  0
  -14.4229  -70.2015  -18.8930 O   0  0  0  0  0  0  0  0  0  0  0  0
  -12.9320  -71.0941  -20.6528 N   0  0  0  0  0  0  0  0  0  0  0  0
  -11.6985  -70.8880  -21.4120 C   0  0  0  0  0  0  0  0  0  0  0  0
  -10.4269  -70.9191  -20.6118 C   0  0  0  0  0  0  0  0  0  0  0  0
  -10.3351  -71.2249  -19.2554 C   0  0  0  0  0  0  0  0  0  0  0  0
   -9.0779  -71.3122  -18.6458 C   0  0  0  0  0  0  0  0  0  0  0  0
   -7.9180  -71.1056  -19.3983 C   0  0  0  0  0  0  0  0  0  0  0  0
   -6.6231  -71.3016  -18.8323 N   0  0  0  0  0  0  0  0  0  0  0  0
   -6.4686  -72.6474  -18.2651 C   0  0  0  0  0  0  0  0  0  0  0  0
   -6.2542  -73.6681  -19.3741 C   0  0  0  0  0  0  0  0  0  0  0  0
   -4.9197  -73.4056  -20.0510 C   0  0  0  0  0  0  0  0  0  0  0  0
   -4.6130  -71.9403  -20.1698 C   0  0  0  0  0  0  0  0  0  0  0  0
   -3.4567  -71.5550  -20.8652 C   0  0  0  0  0  0  0  0  0  0  0  0
   -3.1421  -70.2122  -21.0275 C   0  0  0  0  0  0  0  0  0  0  0  0
   -3.9925  -69.2479  -20.5082 C   0  0  0  0  0  0  0  0  0  0  0  0
   -5.1263  -69.6227  -19.7844 C   0  0  0  0  0  0  0  0  0  0  0  0
   -5.4499  -70.9659  -19.5884 C   0  0  0  0  0  0  0  0  0  0  0  0
   -8.0134  -70.7420  -20.6933 N   0  0  0  0  0  0  0  0  0  0  0  0
   -9.2311  -70.6615  -21.2662 C   0  0  0  0  0  0  0  0  0  0  0  0
  1  2  1  0
  2  3  1  0
  3  4  2  0
  3  5  2  0
  3  6  1  0
  6  7  1  0
  7  8  1  0
  8  9  2  0
  9 10  1  0
 10 11  2  0
 11 12  1  0
 12 13  1  0
 13 14  1  0
 14 15  1  0
 15 16  1  0
 16 17  2  0
 17 18  1  0
 18 19  2  0
 19 20  1  0
 20 21  2  0
 11 22  1  0
 22 23  2  0
 23  8  1  0
 21 12  1  0
 21 16  1  0
M  END
>  <ref_mols>  (2) 
d0174a,d0279a,d0615a

>  <fragmenstein_runtime>  (2) 
[18.919159412384033]

>  <scratch_subdir>  (2) 
['/opt/xchem-fragalysis-2/maxwin/BulkDock/SCRATCH/211010/C778-P17']

>  <tags>  (2) 
['Fragmenstein placed']

>  <fragmenstein_mode>  (2) 
['expansion']

>  <SLURM_JOB_NAME>  (2) 
BulkDock.place:Flavi_NS5_RdRp:RdRp_knitwork_thumb_site_2_pure_split4000_batch000

>  <HIPPO Pose ID>  (2) 
34914

>  <exports>  (2) 
['/opt/xchem-fragalysis-2/maxwin/BulkDock/OUTPUTS/RdRp_knitwork_thumb_site_2_pure_split4000_batch000_211010.sdf', '/opt/xchem-fragalysis-2/maxwin/BulkDock/OUTPUTS/RdRp_knitwork_thumb_site_2_pure_fragalysis.sdf']

>  <inchikey>  (2) 
RJXWTYLZNOTJGF-UHFFFAOYSA-N

>  <csv_name>  (2) 
RdRp_knitwork_thumb_site_2_pure_split4000_batch000.csv

>  <alias>  (2) 
None

>  <fragmenstein_error>  (2) 
['']

>  <SLURM_JOB_ID>  (2) 
211010

>  <original SMILES>  (2) 
CCS(=O)(=O)NCc1ccc(N2CCCc3ccccc32)nc1

>  <name>  (2) 
RJXWTYLZNOTJGF-UHFFFAOYSA-N

>  <ref_pdb>  (2) 
d0174a

>  <original ID>  (2) 
RJXWTYLZNOTJGF-UHFFFAOYSA-N

>  <energy_score>  (2) 
-42.564317

>  <fragmenstein_outcome>  (2) 
['acceptable']

>  <HIPPO Compound ID>  (2) 
778

>  <distance_score>  (2) 
0.972852

$$$$
34932
     RDKit          3D

 23 25  0  0  0  0  0  0  0  0999 V2000
  -14.6921  -69.5173  -22.7289 C   0  0  0  0  0  0  0  0  0  0  0  0
  -15.1694  -69.5964  -21.2943 C   0  0  0  0  0  0  0  0  0  0  0  0
  -13.8389  -69.8163  -20.1201 S   0  0  0  0  0  0  0  0  0  0  0  0
  -12.9197  -68.7130  -20.2336 O   0  0  0  0  0  0  0  0  0  0  0  0
  -14.4190  -70.1916  -18.8447 O   0  0  0  0  0  0  0  0  0  0  0  0
  -13.0936  -71.2007  -20.6800 N   0  0  0  0  0  0  0  0  0  0  0  0
  -11.8155  -71.0825  -21.3927 C   0  0  0  0  0  0  0  0  0  0  0  0
  -10.6101  -71.2009  -20.5076 C   0  0  0  0  0  0  0  0  0  0  0  0
  -10.4864  -72.1828  -19.5294 C   0  0  0  0  0  0  0  0  0  0  0  0
   -9.3037  -72.2942  -18.7941 C   0  0  0  0  0  0  0  0  0  0  0  0
   -8.2367  -71.4308  -19.0356 C   0  0  0  0  0  0  0  0  0  0  0  0
   -7.0036  -71.5434  -18.3297 N   0  0  0  0  0  0  0  0  0  0  0  0
   -5.9164  -70.7745  -18.9725 C   0  0  0  0  0  0  0  0  0  0  0  0
   -5.2938  -71.6070  -20.0830 C   0  0  0  0  0  0  0  0  0  0  0  0
   -4.6217  -72.8324  -19.4688 C   0  0  0  0  0  0  0  0  0  0  0  0
   -5.3817  -73.4063  -18.2955 C   0  0  0  0  0  0  0  0  0  0  0  0
   -4.9155  -74.5930  -17.7074 C   0  0  0  0  0  0  0  0  0  0  0  0
   -5.5505  -75.1268  -16.5876 C   0  0  0  0  0  0  0  0  0  0  0  0
   -6.6491  -74.4756  -16.0366 C   0  0  0  0  0  0  0  0  0  0  0  0
   -7.1207  -73.2957  -16.6141 C   0  0  0  0  0  0  0  0  0  0  0  0
   -6.5092  -72.7506  -17.7553 C   0  0  0  0  0  0  0  0  0  0  0  0
   -8.3671  -70.4702  -19.9805 N   0  0  0  0  0  0  0  0  0  0  0  0
   -9.5140  -70.3771  -20.6899 C   0  0  0  0  0  0  0  0  0  0  0  0
  1  2  1  0
  2  3  1  0
  3  4  2  0
  3  5  2  0
  3  6  1  0
  6  7  1  0
  7  8  1  0
  8  9  2  0
  9 10  1  0
 10 11  2  0
 11 12  1  0
 12 13  1  0
 13 14  1  0
 14 15  1  0
 15 16  1  0
 16 17  2  0
 17 18  1  0
 18 19  2  0
 19 20  1  0
 20 21  2  0
 11 22  1  0
 22 23  2  0
 23  8  1  0
 21 12  1  0
 21 16  1  0
M  END
>  <ref_mols>  (3) 
d0174a,d0279a

>  <fragmenstein_runtime>  (3) 
[20.147342920303345]

>  <scratch_subdir>  (3) 
['/opt/xchem-fragalysis-2/maxwin/BulkDock/SCRATCH/211010/C778-P29']

>  <tags>  (3) 
['Fragmenstein placed']

>  <fragmenstein_mode>  (3) 
['expansion']

>  <SLURM_JOB_NAME>  (3) 
BulkDock.place:Flavi_NS5_RdRp:RdRp_knitwork_thumb_site_2_pure_split4000_batch000

>  <HIPPO Pose ID>  (3) 
34932

>  <exports>  (3) 
['/opt/xchem-fragalysis-2/maxwin/BulkDock/OUTPUTS/RdRp_knitwork_thumb_site_2_pure_split4000_batch000_211010.sdf', '/opt/xchem-fragalysis-2/maxwin/BulkDock/OUTPUTS/RdRp_knitwork_thumb_site_2_pure_fragalysis.sdf']

>  <inchikey>  (3) 
RJXWTYLZNOTJGF-UHFFFAOYSA-N

>  <csv_name>  (3) 
RdRp_knitwork_thumb_site_2_pure_split4000_batch000.csv

>  <alias>  (3) 
None

>  <fragmenstein_error>  (3) 
['']

>  <SLURM_JOB_ID>  (3) 
211010

>  <original SMILES>  (3) 
CCS(=O)(=O)NCc1ccc(N2CCCc3ccccc32)nc1

>  <name>  (3) 
RJXWTYLZNOTJGF-UHFFFAOYSA-N

>  <ref_pdb>  (3) 
d0279a

>  <original ID>  (3) 
RJXWTYLZNOTJGF-UHFFFAOYSA-N

>  <energy_score>  (3) 
-42.549446

>  <fragmenstein_outcome>  (3) 
['acceptable']

>  <HIPPO Compound ID>  (3) 
778

>  <distance_score>  (3) 
0.980435

$$$$
35033
     RDKit          3D

 14 14  0  0  0  0  0  0  0  0999 V2000
  -14.5033  -69.4451  -22.7808 C   0  0  0  0  0  0  0  0  0  0  0  0
  -15.0421  -69.5986  -21.3743 C   0  0  0  0  0  0  0  0  0  0  0  0
  -13.7698  -69.7960  -20.1339 S   0  0  0  0  0  0  0  0  0  0  0  0
  -12.8564  -68.6835  -20.2132 O   0  0  0  0  0  0  0  0  0  0  0  0
  -14.4195  -70.1435  -18.8838 O   0  0  0  0  0  0  0  0  0  0  0  0
  -12.9859  -71.1870  -20.6311 N   0  0  0  0  0  0  0  0  0  0  0  0
  -11.6988  -71.0198  -21.3503 C   0  0  0  0  0  0  0  0  0  0  0  0
  -10.5014  -71.1311  -20.4344 C   0  0  0  0  0  0  0  0  0  0  0  0
  -10.6795  -71.7038  -19.2065 N   0  0  0  0  0  0  0  0  0  0  0  0
   -9.5757  -71.8438  -18.4357 C   0  0  0  0  0  0  0  0  0  0  0  0
   -8.3024  -71.4512  -18.8249 C   0  0  0  0  0  0  0  0  0  0  0  0
   -8.1425  -70.8802  -20.0836 C   0  0  0  0  0  0  0  0  0  0  0  0
   -9.2556  -70.7270  -20.8966 C   0  0  0  0  0  0  0  0  0  0  0  0
   -9.1220  -70.2170  -22.1259 F   0  0  0  0  0  0  0  0  0  0  0  0
  1  2  1  0
  2  3  1  0
  3  4  2  0
  3  5  2  0
  3  6  1  0
  6  7  1  0
  7  8  1  0
  8  9  2  0
  9 10  1  0
 10 11  2  0
 11 12  1  0
 12 13  2  0
 13 14  1  0
 13  8  1  0
M  END
>  <ref_mols>  (4) 
d0174a,d0279a,d0615a

>  <fragmenstein_runtime>  (4) 
[1.9129598140716553]

>  <scratch_subdir>  (4) 
['/opt/xchem-fragalysis-2/maxwin/BulkDock/SCRATCH/211010/C791-P17']

>  <tags>  (4) 
['Fragmenstein placed']

>  <fragmenstein_mode>  (4) 
['expansion']

>  <SLURM_JOB_NAME>  (4) 
BulkDock.place:Flavi_NS5_RdRp:RdRp_knitwork_thumb_site_2_pure_split4000_batch000

>  <HIPPO Pose ID>  (4) 
35033

>  <exports>  (4) 
['/opt/xchem-fragalysis-2/maxwin/BulkDock/OUTPUTS/RdRp_knitwork_thumb_site_2_pure_split4000_batch000_211010.sdf', '/opt/xchem-fragalysis-2/maxwin/BulkDock/OUTPUTS/RdRp_knitwork_thumb_site_2_pure_fragalysis.sdf']

>  <inchikey>  (4) 
VUWLOCLKMVGYPC-UHFFFAOYSA-N

>  <csv_name>  (4) 
RdRp_knitwork_thumb_site_2_pure_split4000_batch000.csv

>  <alias>  (4) 
None

>  <fragmenstein_error>  (4) 
['']

>  <SLURM_JOB_ID>  (4) 
211010

>  <original SMILES>  (4) 
CCS(=O)(=O)NCc1ncccc1F

>  <name>  (4) 
VUWLOCLKMVGYPC-UHFFFAOYSA-N

>  <ref_pdb>  (4) 
d0174a

>  <original ID>  (4) 
VUWLOCLKMVGYPC-UHFFFAOYSA-N

>  <energy_score>  (4) 
-39.773228

>  <fragmenstein_outcome>  (4) 
['acceptable']

>  <HIPPO Compound ID>  (4) 
791

>  <distance_score>  (4) 
0.66543

$$$$
35040
     RDKit          3D

 14 14  0  0  0  0  0  0  0  0999 V2000
  -14.4429  -69.5845  -22.7421 C   0  0  0  0  0  0  0  0  0  0  0  0
  -14.9898  -69.7915  -21.3457 C   0  0  0  0  0  0  0  0  0  0  0  0
  -13.7143  -69.8599  -20.0935 S   0  0  0  0  0  0  0  0  0  0  0  0
  -12.9319  -68.6515  -20.1563 O   0  0  0  0  0  0  0  0  0  0  0  0
  -14.3339  -70.2851  -18.8525 O   0  0  0  0  0  0  0  0  0  0  0  0
  -12.7780  -71.1493  -20.6052 N   0  0  0  0  0  0  0  0  0  0  0  0
  -11.4248  -70.8533  -21.1503 C   0  0  0  0  0  0  0  0  0  0  0  0
  -10.3276  -71.1358  -20.1473 C   0  0  0  0  0  0  0  0  0  0  0  0
  -10.6334  -71.9633  -19.1033 N   0  0  0  0  0  0  0  0  0  0  0  0
   -9.6234  -72.2921  -18.2641 C   0  0  0  0  0  0  0  0  0  0  0  0
   -8.3170  -71.8500  -18.4110 C   0  0  0  0  0  0  0  0  0  0  0  0
   -8.0235  -71.0108  -19.4777 C   0  0  0  0  0  0  0  0  0  0  0  0
   -9.0407  -70.6482  -20.3484 C   0  0  0  0  0  0  0  0  0  0  0  0
   -8.7533  -69.8325  -21.3649 F   0  0  0  0  0  0  0  0  0  0  0  0
  1  2  1  0
  2  3  1  0
  3  4  2  0
  3  5  2  0
  3  6  1  0
  6  7  1  0
  7  8  1  0
  8  9  2  0
  9 10  1  0
 10 11  2  0
 11 12  1  0
 12 13  2  0
 13 14  1  0
 13  8  1  0
M  END
>  <ref_mols>  (5) 
d0174a,d0279a

>  <fragmenstein_runtime>  (5) 
[2.1822903156280518]

>  <scratch_subdir>  (5) 
['/opt/xchem-fragalysis-2/maxwin/BulkDock/SCRATCH/211010/C791-P29']

>  <tags>  (5) 
['Fragmenstein placed']

>  <fragmenstein_mode>  (5) 
['expansion']

>  <SLURM_JOB_NAME>  (5) 
BulkDock.place:Flavi_NS5_RdRp:RdRp_knitwork_thumb_site_2_pure_split4000_batch000

>  <HIPPO Pose ID>  (5) 
35040

>  <exports>  (5) 
['/opt/xchem-fragalysis-2/maxwin/BulkDock/OUTPUTS/RdRp_knitwork_thumb_site_2_pure_split4000_batch000_211010.sdf', '/opt/xchem-fragalysis-2/maxwin/BulkDock/OUTPUTS/RdRp_knitwork_thumb_site_2_pure_fragalysis.sdf']

>  <inchikey>  (5) 
VUWLOCLKMVGYPC-UHFFFAOYSA-N

>  <csv_name>  (5) 
RdRp_knitwork_thumb_site_2_pure_split4000_batch000.csv

>  <alias>  (5) 
None

>  <fragmenstein_error>  (5) 
['']

>  <SLURM_JOB_ID>  (5) 
211010

>  <original SMILES>  (5) 
CCS(=O)(=O)NCc1ncccc1F

>  <name>  (5) 
VUWLOCLKMVGYPC-UHFFFAOYSA-N

>  <ref_pdb>  (5) 
d0279a

>  <original ID>  (5) 
VUWLOCLKMVGYPC-UHFFFAOYSA-N

>  <energy_score>  (5) 
-39.588105

>  <fragmenstein_outcome>  (5) 
['acceptable']

>  <HIPPO Compound ID>  (5) 
791

>  <distance_score>  (5) 
0.711482

$$$$
35380
     RDKit          3D

 23 25  0  0  0  0  0  0  0  0999 V2000
  -14.5198  -69.7339  -22.8671 C   0  0  0  0  0  0  0  0  0  0  0  0
  -15.1424  -70.0648  -21.5255 C   0  0  0  0  0  0  0  0  0  0  0  0
  -14.0624  -69.6969  -20.1525 S   0  0  0  0  0  0  0  0  0  0  0  0
  -13.4838  -68.3916  -20.3558 O   0  0  0  0  0  0  0  0  0  0  0  0
  -14.7286  -70.0419  -18.9144 O   0  0  0  0  0  0  0  0  0  0  0  0
  -12.8526  -70.8644  -20.3301 N   0  0  0  0  0  0  0  0  0  0  0  0
  -11.4889  -70.2974  -20.4949 C   0  0  0  0  0  0  0  0  0  0  0  0
  -10.3887  -71.2904  -20.1228 C   0  0  1  0  0  0  0  0  0  0  0  0
   -9.0210  -70.6707  -20.4994 C   0  0  0  0  0  0  0  0  0  0  0  0
   -7.8534  -70.9082  -19.6074 N   0  0  0  0  0  0  0  0  0  0  0  0
   -6.6476  -70.8851  -20.4535 C   0  0  0  0  0  0  0  0  0  0  0  0
   -5.2892  -71.2174  -19.8748 C   0  0  0  0  0  0  0  0  0  0  0  0
   -4.2458  -70.2957  -19.9639 C   0  0  0  0  0  0  0  0  0  0  0  0
   -2.9419  -70.7277  -19.7281 C   0  0  0  0  0  0  0  0  0  0  0  0
   -2.7152  -72.0558  -19.3936 C   0  0  0  0  0  0  0  0  0  0  0  0
   -3.8064  -72.8984  -19.2920 C   0  0  0  0  0  0  0  0  0  0  0  0
   -5.0771  -72.5126  -19.5322 N   0  0  0  0  0  0  0  0  0  0  0  0
   -7.9679  -72.1320  -18.8152 C   0  0  0  0  0  0  0  0  0  0  0  0
   -9.2595  -72.1135  -18.0843 C   0  0  0  0  0  0  0  0  0  0  0  0
   -9.6572  -72.4747  -16.8188 C   0  0  0  0  0  0  0  0  0  0  0  0
  -11.0517  -72.2703  -16.8174 C   0  0  0  0  0  0  0  0  0  0  0  0
  -11.5082  -71.8131  -17.9895 N   0  0  0  0  0  0  0  0  0  0  0  0
  -10.3843  -71.6841  -18.7248 N   0  0  0  0  0  0  0  0  0  0  0  0
  1  2  1  0
  2  3  1  0
  3  4  2  0
  3  5  2  0
  3  6  1  0
  6  7  1  0
  8  7  1  1
  8  9  1  0
  9 10  1  0
 10 11  1  0
 11 12  1  0
 12 13  2  0
 13 14  1  0
 14 15  2  0
 15 16  1  0
 16 17  2  0
 10 18  1  0
 18 19  1  0
 19 20  2  0
 20 21  1  0
 21 22  2  0
 22 23  1  0
 23  8  1  0
 17 12  1  0
 23 19  1  0
M  END
>  <ref_mols>  (6) 
d0174a,d0279a,d0615a

>  <fragmenstein_runtime>  (6) 
[5.807825565338135]

>  <scratch_subdir>  (6) 
['/opt/xchem-fragalysis-2/maxwin/BulkDock/SCRATCH/211010/C881-P17']

>  <tags>  (6) 
['Fragmenstein placed']

>  <fragmenstein_mode>  (6) 
['expansion']

>  <SLURM_JOB_NAME>  (6) 
BulkDock.place:Flavi_NS5_RdRp:RdRp_knitwork_thumb_site_2_pure_split4000_batch000

>  <HIPPO Pose ID>  (6) 
35380

>  <exports>  (6) 
['/opt/xchem-fragalysis-2/maxwin/BulkDock/OUTPUTS/RdRp_knitwork_thumb_site_2_pure_split4000_batch000_211010.sdf', '/opt/xchem-fragalysis-2/maxwin/BulkDock/OUTPUTS/RdRp_knitwork_thumb_site_2_pure_fragalysis.sdf']

>  <inchikey>  (6) 
ISCXYOCITAPIBQ-HNNXBMFYSA-N

>  <csv_name>  (6) 
RdRp_knitwork_thumb_site_2_pure_split4000_batch000.csv

>  <alias>  (6) 
None

>  <fragmenstein_error>  (6) 
['']

>  <SLURM_JOB_ID>  (6) 
211010

>  <original SMILES>  (6) 
CCS(=O)(=O)NC[C@H]1CN(Cc2ccccn2)Cc2ccnn21

>  <name>  (6) 
ISCXYOCITAPIBQ-HNNXBMFYSA-N

>  <ref_pdb>  (6) 
d0174a

>  <original ID>  (6) 
ISCXYOCITAPIBQ-HNNXBMFYSA-N

>  <energy_score>  (6) 
-65.914605

>  <fragmenstein_outcome>  (6) 
['acceptable']

>  <HIPPO Compound ID>  (6) 
881

>  <distance_score>  (6) 
0.834736

$$$$
35387
     RDKit          3D

 23 25  0  0  0  0  0  0  0  0999 V2000
  -14.5567  -69.7480  -22.7751 C   0  0  0  0  0  0  0  0  0  0  0  0
  -15.1708  -69.9477  -21.4039 C   0  0  0  0  0  0  0  0  0  0  0  0
  -13.9927  -69.7063  -20.0825 S   0  0  0  0  0  0  0  0  0  0  0  0
  -13.3302  -68.4422  -20.2828 O   0  0  0  0  0  0  0  0  0  0  0  0
  -14.6167  -70.0443  -18.8201 O   0  0  0  0  0  0  0  0  0  0  0  0
  -12.8779  -70.9363  -20.3623 N   0  0  0  0  0  0  0  0  0  0  0  0
  -11.4527  -70.4862  -20.4178 C   0  0  0  0  0  0  0  0  0  0  0  0
  -10.5150  -71.6864  -20.2901 C   0  0  1  0  0  0  0  0  0  0  0  0
   -9.0876  -71.3494  -20.7559 C   0  0  0  0  0  0  0  0  0  0  0  0
   -8.0835  -71.0525  -19.6945 N   0  0  0  0  0  0  0  0  0  0  0  0
   -6.7931  -70.8272  -20.3920 C   0  0  0  0  0  0  0  0  0  0  0  0
   -5.4434  -71.0814  -19.7433 C   0  0  0  0  0  0  0  0  0  0  0  0
   -4.4300  -70.1292  -19.8675 C   0  0  0  0  0  0  0  0  0  0  0  0
   -3.1085  -70.5090  -19.6340 C   0  0  0  0  0  0  0  0  0  0  0  0
   -2.8307  -71.8182  -19.2665 C   0  0  0  0  0  0  0  0  0  0  0  0
   -3.8914  -72.6933  -19.1286 C   0  0  0  0  0  0  0  0  0  0  0  0
   -5.1778  -72.3585  -19.3670 N   0  0  0  0  0  0  0  0  0  0  0  0
   -8.0228  -72.1654  -18.7422 C   0  0  0  0  0  0  0  0  0  0  0  0
   -9.3753  -72.4400  -18.1910 C   0  0  0  0  0  0  0  0  0  0  0  0
   -9.8118  -72.9894  -17.0066 C   0  0  0  0  0  0  0  0  0  0  0  0
  -11.2096  -73.0770  -17.1481 C   0  0  0  0  0  0  0  0  0  0  0  0
  -11.6395  -72.5920  -18.3173 N   0  0  0  0  0  0  0  0  0  0  0  0
  -10.4977  -72.2135  -18.9331 N   0  0  0  0  0  0  0  0  0  0  0  0
  1  2  1  0
  2  3  1  0
  3  4  2  0
  3  5  2  0
  3  6  1  0
  6  7  1  0
  8  7  1  1
  8  9  1  0
  9 10  1  0
 10 11  1  0
 11 12  1  0
 12 13  2  0
 13 14  1  0
 14 15  2  0
 15 16  1  0
 16 17  2  0
 10 18  1  0
 18 19  1  0
 19 20  2  0
 20 21  1  0
 21 22  2  0
 22 23  1  0
 23  8  1  0
 17 12  1  0
 23 19  1  0
M  END
>  <ref_mols>  (7) 
d0174a,d0279a

>  <fragmenstein_runtime>  (7) 
[6.74865984916687]

>  <scratch_subdir>  (7) 
['/opt/xchem-fragalysis-2/maxwin/BulkDock/SCRATCH/211010/C881-P29']

>  <tags>  (7) 
['Fragmenstein placed']

>  <fragmenstein_mode>  (7) 
['expansion']

>  <SLURM_JOB_NAME>  (7) 
BulkDock.place:Flavi_NS5_RdRp:RdRp_knitwork_thumb_site_2_pure_split4000_batch000

>  <HIPPO Pose ID>  (7) 
35387

>  <exports>  (7) 
['/opt/xchem-fragalysis-2/maxwin/BulkDock/OUTPUTS/RdRp_knitwork_thumb_site_2_pure_split4000_batch000_211010.sdf', '/opt/xchem-fragalysis-2/maxwin/BulkDock/OUTPUTS/RdRp_knitwork_thumb_site_2_pure_fragalysis.sdf']

>  <inchikey>  (7) 
ISCXYOCITAPIBQ-HNNXBMFYSA-N

>  <csv_name>  (7) 
RdRp_knitwork_thumb_site_2_pure_split4000_batch000.csv

>  <alias>  (7) 
None

>  <fragmenstein_error>  (7) 
['']

>  <SLURM_JOB_ID>  (7) 
211010

>  <original SMILES>  (7) 
CCS(=O)(=O)NC[C@H]1CN(Cc2ccccn2)Cc2ccnn21

>  <name>  (7) 
ISCXYOCITAPIBQ-HNNXBMFYSA-N

>  <ref_pdb>  (7) 
d0279a

>  <original ID>  (7) 
ISCXYOCITAPIBQ-HNNXBMFYSA-N

>  <energy_score>  (7) 
-67.924786

>  <fragmenstein_outcome>  (7) 
['acceptable']

>  <HIPPO Compound ID>  (7) 
881

>  <distance_score>  (7) 
0.860258

$$$$
35401
     RDKit          3D

 14 14  0  0  0  0  0  0  0  0999 V2000
  -14.5271  -69.4964  -22.7379 C   0  0  0  0  0  0  0  0  0  0  0  0
  -15.0969  -69.5393  -21.3356 C   0  0  0  0  0  0  0  0  0  0  0  0
  -13.8647  -69.7835  -20.0626 S   0  0  0  0  0  0  0  0  0  0  0  0
  -12.8507  -68.7649  -20.1831 O   0  0  0  0  0  0  0  0  0  0  0  0
  -14.5530  -70.0118  -18.8065 O   0  0  0  0  0  0  0  0  0  0  0  0
  -13.2051  -71.2676  -20.4586 N   0  0  0  0  0  0  0  0  0  0  0  0
  -11.9095  -71.2465  -21.1690 C   0  0  0  0  0  0  0  0  0  0  0  0
  -10.7189  -71.2920  -20.2297 C   0  0  0  0  0  0  0  0  0  0  0  0
  -10.9165  -71.8438  -18.9951 N   0  0  0  0  0  0  0  0  0  0  0  0
   -9.8325  -71.9591  -18.1923 C   0  0  0  0  0  0  0  0  0  0  0  0
   -8.5544  -71.5606  -18.5514 C   0  0  0  0  0  0  0  0  0  0  0  0
   -8.3693  -71.0059  -19.8122 C   0  0  0  0  0  0  0  0  0  0  0  0
   -9.4633  -70.8754  -20.6624 C   0  0  0  0  0  0  0  0  0  0  0  0
   -9.2417  -70.2375  -22.2286 Cl  0  0  0  0  0  0  0  0  0  0  0  0
  1  2  1  0
  2  3  1  0
  3  4  2  0
  3  5  2  0
  3  6  1  0
  6  7  1  0
  7  8  1  0
  8  9  2  0
  9 10  1  0
 10 11  2  0
 11 12  1  0
 12 13  2  0
 13 14  1  0
 13  8  1  0
M  END
>  <ref_mols>  (8) 
d0174a,d0279a,d0615a

>  <fragmenstein_runtime>  (8) 
[2.2065699100494385]

>  <scratch_subdir>  (8) 
['/opt/xchem-fragalysis-2/maxwin/BulkDock/SCRATCH/211010/C886-P17']

>  <tags>  (8) 
['Fragmenstein placed']

>  <fragmenstein_mode>  (8) 
['expansion']

>  <SLURM_JOB_NAME>  (8) 
BulkDock.place:Flavi_NS5_RdRp:RdRp_knitwork_thumb_site_2_pure_split4000_batch000

>  <HIPPO Pose ID>  (8) 
35401

>  <exports>  (8) 
['/opt/xchem-fragalysis-2/maxwin/BulkDock/OUTPUTS/RdRp_knitwork_thumb_site_2_pure_split4000_batch000_211010.sdf', '/opt/xchem-fragalysis-2/maxwin/BulkDock/OUTPUTS/RdRp_knitwork_thumb_site_2_pure_fragalysis.sdf']

>  <inchikey>  (8) 
QXEWTLBETOJJBD-UHFFFAOYSA-N

>  <csv_name>  (8) 
RdRp_knitwork_thumb_site_2_pure_split4000_batch000.csv

>  <alias>  (8) 
None

>  <fragmenstein_error>  (8) 
['']

>  <SLURM_JOB_ID>  (8) 
211010

>  <original SMILES>  (8) 
CCS(=O)(=O)NCc1ncccc1Cl

>  <name>  (8) 
QXEWTLBETOJJBD-UHFFFAOYSA-N

>  <ref_pdb>  (8) 
d0174a

>  <original ID>  (8) 
QXEWTLBETOJJBD-UHFFFAOYSA-N

>  <energy_score>  (8) 
-40.641302

>  <fragmenstein_outcome>  (8) 
['acceptable']

>  <HIPPO Compound ID>  (8) 
886

>  <distance_score>  (8) 
0.858968

$$$$
35403
     RDKit          3D

 14 14  0  0  0  0  0  0  0  0999 V2000
  -14.5741  -69.7587  -22.7566 C   0  0  0  0  0  0  0  0  0  0  0  0
  -15.1355  -70.0903  -21.3878 C   0  0  0  0  0  0  0  0  0  0  0  0
  -13.9627  -69.7852  -20.0743 S   0  0  0  0  0  0  0  0  0  0  0  0
  -13.4552  -68.4449  -20.2283 O   0  0  0  0  0  0  0  0  0  0  0  0
  -14.5276  -70.2291  -18.8158 O   0  0  0  0  0  0  0  0  0  0  0  0
  -12.7404  -70.8788  -20.4186 N   0  0  0  0  0  0  0  0  0  0  0  0
  -11.3745  -70.3015  -20.5061 C   0  0  0  0  0  0  0  0  0  0  0  0
  -10.3296  -71.1525  -19.8160 C   0  0  0  0  0  0  0  0  0  0  0  0
  -10.7849  -72.1317  -18.9831 N   0  0  0  0  0  0  0  0  0  0  0  0
   -9.8576  -72.8509  -18.3109 C   0  0  0  0  0  0  0  0  0  0  0  0
   -8.4921  -72.6442  -18.4149 C   0  0  0  0  0  0  0  0  0  0  0  0
   -8.0432  -71.6391  -19.2586 C   0  0  0  0  0  0  0  0  0  0  0  0
   -8.9722  -70.8788  -19.9599 C   0  0  0  0  0  0  0  0  0  0  0  0
   -8.4004  -69.6059  -20.9266 Cl  0  0  0  0  0  0  0  0  0  0  0  0
  1  2  1  0
  2  3  1  0
  3  4  2  0
  3  5  2  0
  3  6  1  0
  6  7  1  0
  7  8  1  0
  8  9  2  0
  9 10  1  0
 10 11  2  0
 11 12  1  0
 12 13  2  0
 13 14  1  0
 13  8  1  0
M  END
>  <ref_mols>  (9) 
d0174a,d0279a

>  <fragmenstein_runtime>  (9) 
[2.028217315673828]

>  <scratch_subdir>  (9) 
['/opt/xchem-fragalysis-2/maxwin/BulkDock/SCRATCH/211010/C886-P29']

>  <tags>  (9) 
['Fragmenstein placed']

>  <fragmenstein_mode>  (9) 
['expansion']

>  <SLURM_JOB_NAME>  (9) 
BulkDock.place:Flavi_NS5_RdRp:RdRp_knitwork_thumb_site_2_pure_split4000_batch000

>  <HIPPO Pose ID>  (9) 
35403

>  <exports>  (9) 
['/opt/xchem-fragalysis-2/maxwin/BulkDock/OUTPUTS/RdRp_knitwork_thumb_site_2_pure_split4000_batch000_211010.sdf', '/opt/xchem-fragalysis-2/maxwin/BulkDock/OUTPUTS/RdRp_knitwork_thumb_site_2_pure_fragalysis.sdf']

>  <inchikey>  (9) 
QXEWTLBETOJJBD-UHFFFAOYSA-N

>  <csv_name>  (9) 
RdRp_knitwork_thumb_site_2_pure_split4000_batch000.csv

>  <alias>  (9) 
None

>  <fragmenstein_error>  (9) 
['']

>  <SLURM_JOB_ID>  (9) 
211010

>  <original SMILES>  (9) 
CCS(=O)(=O)NCc1ncccc1Cl

>  <name>  (9) 
QXEWTLBETOJJBD-UHFFFAOYSA-N

>  <ref_pdb>  (9) 
d0279a

>  <original ID>  (9) 
QXEWTLBETOJJBD-UHFFFAOYSA-N

>  <energy_score>  (9) 
-40.3162

>  <fragmenstein_outcome>  (9) 
['acceptable']

>  <HIPPO Compound ID>  (9) 
886

>  <distance_score>  (9) 
0.944578

$$$$
35409
     RDKit          3D

 14 14  0  0  0  0  0  0  0  0999 V2000
  -14.5086  -69.4359  -22.7559 C   0  0  0  0  0  0  0  0  0  0  0  0
  -15.0878  -69.4746  -21.3571 C   0  0  0  0  0  0  0  0  0  0  0  0
  -13.8676  -69.7837  -20.0871 S   0  0  0  0  0  0  0  0  0  0  0  0
  -12.8479  -68.7677  -20.1534 O   0  0  0  0  0  0  0  0  0  0  0  0
  -14.5570  -70.0753  -18.8446 O   0  0  0  0  0  0  0  0  0  0  0  0
  -13.2168  -71.2472  -20.5465 N   0  0  0  0  0  0  0  0  0  0  0  0
  -11.8791  -71.2653  -21.1408 C   0  0  0  0  0  0  0  0  0  0  0  0
  -10.7327  -71.2835  -20.1560 C   0  0  0  0  0  0  0  0  0  0  0  0
  -10.8654  -71.7838  -18.8541 C   0  0  0  0  0  0  0  0  0  0  0  0
   -9.7510  -71.8264  -18.0242 C   0  0  0  0  0  0  0  0  0  0  0  0
   -8.5199  -71.4180  -18.3910 N   0  0  0  0  0  0  0  0  0  0  0  0
   -8.4007  -70.9448  -19.6532 C   0  0  0  0  0  0  0  0  0  0  0  0
   -9.4584  -70.8647  -20.5513 C   0  0  0  0  0  0  0  0  0  0  0  0
   -9.1785  -70.2759  -22.1297 Cl  0  0  0  0  0  0  0  0  0  0  0  0
  1  2  1  0
  2  3  1  0
  3  4  2  0
  3  5  2  0
  3  6  1  0
  6  7  1  0
  7  8  1  0
  8  9  2  0
  9 10  1  0
 10 11  2  0
 11 12  1  0
 12 13  2  0
 13 14  1  0
 13  8  1  0
M  END
>  <ref_mols>  (10) 
d0174a,d0279a,d0615a

>  <fragmenstein_runtime>  (10) 
[1.9352526664733887]

>  <scratch_subdir>  (10) 
['/opt/xchem-fragalysis-2/maxwin/BulkDock/SCRATCH/211010/C890-P17']

>  <tags>  (10) 
['Fragmenstein placed']

>  <fragmenstein_mode>  (10) 
['expansion']

>  <SLURM_JOB_NAME>  (10) 
BulkDock.place:Flavi_NS5_RdRp:RdRp_knitwork_thumb_site_2_pure_split4000_batch000

>  <HIPPO Pose ID>  (10) 
35409

>  <exports>  (10) 
['/opt/xchem-fragalysis-2/maxwin/BulkDock/OUTPUTS/RdRp_knitwork_thumb_site_2_pure_split4000_batch000_211010.sdf', '/opt/xchem-fragalysis-2/maxwin/BulkDock/OUTPUTS/RdRp_knitwork_thumb_site_2_pure_fragalysis.sdf']

>  <inchikey>  (10) 
XDGUIPBTSIDPMH-UHFFFAOYSA-N

>  <csv_name>  (10) 
RdRp_knitwork_thumb_site_2_pure_split4000_batch000.csv

>  <alias>  (10) 
None

>  <fragmenstein_error>  (10) 
['']

>  <SLURM_JOB_ID>  (10) 
211010

>  <original SMILES>  (10) 
CCS(=O)(=O)NCc1ccncc1Cl

>  <name>  (10) 
XDGUIPBTSIDPMH-UHFFFAOYSA-N

>  <ref_pdb>  (10) 
d0174a

>  <original ID>  (10) 
XDGUIPBTSIDPMH-UHFFFAOYSA-N

>  <energy_score>  (10) 
-30.027819

>  <fragmenstein_outcome>  (10) 
['acceptable']

>  <HIPPO Compound ID>  (10) 
890

>  <distance_score>  (10) 
0.758021

$$$$
35410
     RDKit          3D

 14 14  0  0  0  0  0  0  0  0999 V2000
  -14.5475  -69.5114  -22.7115 C   0  0  0  0  0  0  0  0  0  0  0  0
  -15.0670  -69.6742  -21.2985 C   0  0  0  0  0  0  0  0  0  0  0  0
  -13.7611  -69.8666  -20.0919 S   0  0  0  0  0  0  0  0  0  0  0  0
  -12.9109  -68.7052  -20.1398 O   0  0  0  0  0  0  0  0  0  0  0  0
  -14.3539  -70.3177  -18.8474 O   0  0  0  0  0  0  0  0  0  0  0  0
  -12.9275  -71.1869  -20.6920 N   0  0  0  0  0  0  0  0  0  0  0  0
  -11.5009  -71.0321  -21.0268 C   0  0  0  0  0  0  0  0  0  0  0  0
  -10.5297  -71.3124  -19.9003 C   0  0  0  0  0  0  0  0  0  0  0  0
  -10.8471  -72.1894  -18.8537 C   0  0  0  0  0  0  0  0  0  0  0  0
   -9.8882  -72.4862  -17.8907 C   0  0  0  0  0  0  0  0  0  0  0  0
   -8.6352  -71.9933  -17.8939 N   0  0  0  0  0  0  0  0  0  0  0  0
   -8.3322  -71.1599  -18.9098 C   0  0  0  0  0  0  0  0  0  0  0  0
   -9.2298  -70.7898  -19.9050 C   0  0  0  0  0  0  0  0  0  0  0  0
   -8.6831  -69.6722  -21.0670 Cl  0  0  0  0  0  0  0  0  0  0  0  0
  1  2  1  0
  2  3  1  0
  3  4  2  0
  3  5  2  0
  3  6  1  0
  6  7  1  0
  7  8  1  0
  8  9  2  0
  9 10  1  0
 10 11  2  0
 11 12  1  0
 12 13  2  0
 13 14  1  0
 13  8  1  0
M  END
>  <ref_mols>  (11) 
d0174a,d0279a

>  <fragmenstein_runtime>  (11) 
[1.9639780521392822]

>  <scratch_subdir>  (11) 
['/opt/xchem-fragalysis-2/maxwin/BulkDock/SCRATCH/211010/C890-P29']

>  <tags>  (11) 
['Fragmenstein placed']

>  <fragmenstein_mode>  (11) 
['expansion']

>  <SLURM_JOB_NAME>  (11) 
BulkDock.place:Flavi_NS5_RdRp:RdRp_knitwork_thumb_site_2_pure_split4000_batch000

>  <HIPPO Pose ID>  (11) 
35410

>  <exports>  (11) 
['/opt/xchem-fragalysis-2/maxwin/BulkDock/OUTPUTS/RdRp_knitwork_thumb_site_2_pure_split4000_batch000_211010.sdf', '/opt/xchem-fragalysis-2/maxwin/BulkDock/OUTPUTS/RdRp_knitwork_thumb_site_2_pure_fragalysis.sdf']

>  <inchikey>  (11) 
XDGUIPBTSIDPMH-UHFFFAOYSA-N

>  <csv_name>  (11) 
RdRp_knitwork_thumb_site_2_pure_split4000_batch000.csv

>  <alias>  (11) 
None

>  <fragmenstein_error>  (11) 
['']

>  <SLURM_JOB_ID>  (11) 
211010

>  <original SMILES>  (11) 
CCS(=O)(=O)NCc1ccncc1Cl

>  <name>  (11) 
XDGUIPBTSIDPMH-UHFFFAOYSA-N

>  <ref_pdb>  (11) 
d0279a

>  <original ID>  (11) 
XDGUIPBTSIDPMH-UHFFFAOYSA-N

>  <energy_score>  (11) 
-28.755577

>  <fragmenstein_outcome>  (11) 
['acceptable']

>  <HIPPO Compound ID>  (11) 
890

>  <distance_score>  (11) 
0.826049

$$$$
35416
     RDKit          3D

 21 22  0  0  0  0  0  0  0  0999 V2000
  -14.5237  -69.3908  -22.7879 C   0  0  0  0  0  0  0  0  0  0  0  0
  -15.0477  -69.5285  -21.3743 C   0  0  0  0  0  0  0  0  0  0  0  0
  -13.7677  -69.7827  -20.1524 S   0  0  0  0  0  0  0  0  0  0  0  0
  -12.8456  -68.6772  -20.2008 O   0  0  0  0  0  0  0  0  0  0  0  0
  -14.4090  -70.1741  -18.9107 O   0  0  0  0  0  0  0  0  0  0  0  0
  -13.0048  -71.1573  -20.6982 N   0  0  0  0  0  0  0  0  0  0  0  0
  -11.7335  -71.0407  -21.4179 C   0  0  0  0  0  0  0  0  0  0  0  0
  -10.4956  -71.1374  -20.5570 C   0  0  0  0  0  0  0  0  0  0  0  0
  -10.4313  -71.9483  -19.4161 C   0  0  0  0  0  0  0  0  0  0  0  0
   -9.2344  -72.0847  -18.7060 C   0  0  0  0  0  0  0  0  0  0  0  0
   -8.0798  -71.4204  -19.1201 C   0  0  0  0  0  0  0  0  0  0  0  0
   -6.9696  -71.6700  -18.3636 O   0  0  0  0  0  0  0  0  0  0  0  0
   -5.8476  -70.8025  -18.5376 C   0  0  0  0  0  0  0  0  0  0  0  0
   -4.9070  -71.1660  -19.6514 C   0  0  0  0  0  0  0  0  0  0  0  0
   -4.5984  -72.4948  -19.9279 C   0  0  0  0  0  0  0  0  0  0  0  0
   -3.6829  -72.7670  -20.9283 C   0  0  0  0  0  0  0  0  0  0  0  0
   -3.0948  -71.7076  -21.6056 C   0  0  0  0  0  0  0  0  0  0  0  0
   -3.4308  -70.4135  -21.2508 C   0  0  0  0  0  0  0  0  0  0  0  0
   -4.3232  -70.1226  -20.2928 N   0  0  0  0  0  0  0  0  0  0  0  0
   -8.1320  -70.6123  -20.2525 C   0  0  0  0  0  0  0  0  0  0  0  0
   -9.3282  -70.4746  -20.9646 C   0  0  0  0  0  0  0  0  0  0  0  0
  1  2  1  0
  2  3  1  0
  3  4  2  0
  3  5  2  0
  3  6  1  0
  6  7  1  0
  7  8  1  0
  8  9  2  0
  9 10  1  0
 10 11  2  0
 11 12  1  0
 12 13  1  0
 13 14  1  0
 14 15  2  0
 15 16  1  0
 16 17  2  0
 17 18  1  0
 18 19  2  0
 11 20  1  0
 20 21  2  0
 21  8  1  0
 19 14  1  0
M  END
>  <ref_mols>  (12) 
d0174a,d0279a,d0615a

>  <fragmenstein_runtime>  (12) 
[6.282539129257202]

>  <scratch_subdir>  (12) 
['/opt/xchem-fragalysis-2/maxwin/BulkDock/SCRATCH/211010/C897-P17']

>  <tags>  (12) 
['Fragmenstein placed']

>  <fragmenstein_mode>  (12) 
['expansion']

>  <SLURM_JOB_NAME>  (12) 
BulkDock.place:Flavi_NS5_RdRp:RdRp_knitwork_thumb_site_2_pure_split4000_batch000

>  <HIPPO Pose ID>  (12) 
35416

>  <exports>  (12) 
['/opt/xchem-fragalysis-2/maxwin/BulkDock/OUTPUTS/RdRp_knitwork_thumb_site_2_pure_split4000_batch000_211010.sdf', '/opt/xchem-fragalysis-2/maxwin/BulkDock/OUTPUTS/RdRp_knitwork_thumb_site_2_pure_fragalysis.sdf']

>  <inchikey>  (12) 
ZPBHINXHGPMFIS-UHFFFAOYSA-N

>  <csv_name>  (12) 
RdRp_knitwork_thumb_site_2_pure_split4000_batch000.csv

>  <alias>  (12) 
None

>  <fragmenstein_error>  (12) 
['']

>  <SLURM_JOB_ID>  (12) 
211010

>  <original SMILES>  (12) 
CCS(=O)(=O)NCc1ccc(OCc2ccccn2)cc1

>  <name>  (12) 
ZPBHINXHGPMFIS-UHFFFAOYSA-N

>  <ref_pdb>  (12) 
d0174a

>  <original ID>  (12) 
ZPBHINXHGPMFIS-UHFFFAOYSA-N

>  <energy_score>  (12) 
-36.475766

>  <fragmenstein_outcome>  (12) 
['acceptable']

>  <HIPPO Compound ID>  (12) 
897

>  <distance_score>  (12) 
0.963394

$$$$
35422
     RDKit          3D

 21 22  0  0  0  0  0  0  0  0999 V2000
  -14.6366  -69.5318  -22.7217 C   0  0  0  0  0  0  0  0  0  0  0  0
  -15.1349  -69.6369  -21.2962 C   0  0  0  0  0  0  0  0  0  0  0  0
  -13.8201  -69.8173  -20.0973 S   0  0  0  0  0  0  0  0  0  0  0  0
  -12.9313  -68.6886  -20.1986 O   0  0  0  0  0  0  0  0  0  0  0  0
  -14.4187  -70.1968  -18.8312 O   0  0  0  0  0  0  0  0  0  0  0  0
  -13.0304  -71.1842  -20.6276 N   0  0  0  0  0  0  0  0  0  0  0  0
  -11.7672  -71.0508  -21.3588 C   0  0  0  0  0  0  0  0  0  0  0  0
  -10.5252  -71.1832  -20.5094 C   0  0  0  0  0  0  0  0  0  0  0  0
  -10.4334  -72.1046  -19.4580 C   0  0  0  0  0  0  0  0  0  0  0  0
   -9.2307  -72.2798  -18.7679 C   0  0  0  0  0  0  0  0  0  0  0  0
   -8.0954  -71.5492  -19.1172 C   0  0  0  0  0  0  0  0  0  0  0  0
   -6.9728  -71.8592  -18.4044 O   0  0  0  0  0  0  0  0  0  0  0  0
   -5.8732  -70.9529  -18.4844 C   0  0  0  0  0  0  0  0  0  0  0  0
   -4.9090  -71.1833  -19.6125 C   0  0  0  0  0  0  0  0  0  0  0  0
   -4.5496  -72.4689  -20.0050 C   0  0  0  0  0  0  0  0  0  0  0  0
   -3.5788  -72.6144  -20.9798 C   0  0  0  0  0  0  0  0  0  0  0  0
   -2.9890  -71.4766  -21.5161 C   0  0  0  0  0  0  0  0  0  0  0  0
   -3.3860  -70.2330  -21.0587 C   0  0  0  0  0  0  0  0  0  0  0  0
   -4.3348  -70.0674  -20.1260 N   0  0  0  0  0  0  0  0  0  0  0  0
   -8.1757  -70.6267  -20.1558 C   0  0  0  0  0  0  0  0  0  0  0  0
   -9.3807  -70.4452  -20.8433 C   0  0  0  0  0  0  0  0  0  0  0  0
  1  2  1  0
  2  3  1  0
  3  4  2  0
  3  5  2  0
  3  6  1  0
  6  7  1  0
  7  8  1  0
  8  9  2  0
  9 10  1  0
 10 11  2  0
 11 12  1  0
 12 13  1  0
 13 14  1  0
 14 15  2  0
 15 16  1  0
 16 17  2  0
 17 18  1  0
 18 19  2  0
 11 20  1  0
 20 21  2  0
 21  8  1  0
 19 14  1  0
M  END
>  <ref_mols>  (13) 
d0174a,d0279a

>  <fragmenstein_runtime>  (13) 
[6.457012414932251]

>  <scratch_subdir>  (13) 
['/opt/xchem-fragalysis-2/maxwin/BulkDock/SCRATCH/211010/C897-P29']

>  <tags>  (13) 
['Fragmenstein placed']

>  <fragmenstein_mode>  (13) 
['expansion']

>  <SLURM_JOB_NAME>  (13) 
BulkDock.place:Flavi_NS5_RdRp:RdRp_knitwork_thumb_site_2_pure_split4000_batch000

>  <HIPPO Pose ID>  (13) 
35422

>  <exports>  (13) 
['/opt/xchem-fragalysis-2/maxwin/BulkDock/OUTPUTS/RdRp_knitwork_thumb_site_2_pure_split4000_batch000_211010.sdf', '/opt/xchem-fragalysis-2/maxwin/BulkDock/OUTPUTS/RdRp_knitwork_thumb_site_2_pure_fragalysis.sdf']

>  <inchikey>  (13) 
ZPBHINXHGPMFIS-UHFFFAOYSA-N

>  <csv_name>  (13) 
RdRp_knitwork_thumb_site_2_pure_split4000_batch000.csv

>  <alias>  (13) 
None

>  <fragmenstein_error>  (13) 
['']

>  <SLURM_JOB_ID>  (13) 
211010

>  <original SMILES>  (13) 
CCS(=O)(=O)NCc1ccc(OCc2ccccn2)cc1

>  <name>  (13) 
ZPBHINXHGPMFIS-UHFFFAOYSA-N

>  <ref_pdb>  (13) 
d0279a

>  <original ID>  (13) 
ZPBHINXHGPMFIS-UHFFFAOYSA-N

>  <energy_score>  (13) 
-36.21249

>  <fragmenstein_outcome>  (13) 
['acceptable']

>  <HIPPO Compound ID>  (13) 
897

>  <distance_score>  (13) 
0.974417

$$$$
35447
     RDKit          3D

 20 21  0  0  0  0  0  0  0  0999 V2000
  -14.3996  -69.4067  -22.8093 C   0  0  0  0  0  0  0  0  0  0  0  0
  -14.9601  -69.6080  -21.4176 C   0  0  0  0  0  0  0  0  0  0  0  0
  -13.7007  -69.8171  -20.1651 S   0  0  0  0  0  0  0  0  0  0  0  0
  -12.8337  -68.6672  -20.1746 O   0  0  0  0  0  0  0  0  0  0  0  0
  -14.3519  -70.2561  -18.9449 O   0  0  0  0  0  0  0  0  0  0  0  0
  -12.8549  -71.1443  -20.7148 N   0  0  0  0  0  0  0  0  0  0  0  0
  -11.5163  -70.9656  -21.2895 C   0  0  0  0  0  0  0  0  0  0  0  0
  -10.3666  -71.0847  -20.3155 C   0  0  0  0  0  0  0  0  0  0  0  0
  -10.4852  -71.6884  -19.0596 C   0  0  0  0  0  0  0  0  0  0  0  0
   -9.3592  -71.7963  -18.2534 C   0  0  0  0  0  0  0  0  0  0  0  0
   -8.1326  -71.3601  -18.6022 N   0  0  0  0  0  0  0  0  0  0  0  0
   -8.0237  -70.7988  -19.8262 C   0  0  0  0  0  0  0  0  0  0  0  0
   -6.8182  -70.2359  -20.2097 O   0  0  0  0  0  0  0  0  0  0  0  0
   -5.6465  -70.9360  -20.0367 C   0  0  0  0  0  0  0  0  0  0  0  0
   -4.4744  -70.1744  -20.1268 C   0  0  0  0  0  0  0  0  0  0  0  0
   -3.2189  -70.7894  -20.1009 C   0  0  0  0  0  0  0  0  0  0  0  0
   -3.1294  -72.1735  -19.9793 C   0  0  0  0  0  0  0  0  0  0  0  0
   -4.2923  -72.9367  -19.8814 C   0  0  0  0  0  0  0  0  0  0  0  0
   -5.5478  -72.3215  -19.9208 C   0  0  0  0  0  0  0  0  0  0  0  0
   -9.0966  -70.6264  -20.6951 C   0  0  0  0  0  0  0  0  0  0  0  0
  1  2  1  0
  2  3  1  0
  3  4  2  0
  3  5  2  0
  3  6  1  0
  6  7  1  0
  7  8  1  0
  8  9  2  0
  9 10  1  0
 10 11  2  0
 11 12  1  0
 12 13  1  0
 13 14  1  0
 14 15  2  0
 15 16  1  0
 16 17  2  0
 17 18  1  0
 18 19  2  0
 12 20  2  0
 20  8  1  0
 19 14  1  0
M  END
>  <ref_mols>  (14) 
d0174a,d0279a,d0615a

>  <fragmenstein_runtime>  (14) 
[5.252307176589966]

>  <scratch_subdir>  (14) 
['/opt/xchem-fragalysis-2/maxwin/BulkDock/SCRATCH/211010/C912-P17']

>  <tags>  (14) 
['Fragmenstein placed']

>  <fragmenstein_mode>  (14) 
['expansion']

>  <SLURM_JOB_NAME>  (14) 
BulkDock.place:Flavi_NS5_RdRp:RdRp_knitwork_thumb_site_2_pure_split4000_batch000

>  <HIPPO Pose ID>  (14) 
35447

>  <exports>  (14) 
['/opt/xchem-fragalysis-2/maxwin/BulkDock/OUTPUTS/RdRp_knitwork_thumb_site_2_pure_split4000_batch000_211010.sdf', '/opt/xchem-fragalysis-2/maxwin/BulkDock/OUTPUTS/RdRp_knitwork_thumb_site_2_pure_fragalysis.sdf']

>  <inchikey>  (14) 
OXQLXDFGCNBLRR-UHFFFAOYSA-N

>  <csv_name>  (14) 
RdRp_knitwork_thumb_site_2_pure_split4000_batch000.csv

>  <alias>  (14) 
None

>  <fragmenstein_error>  (14) 
['']

>  <SLURM_JOB_ID>  (14) 
211010

>  <original SMILES>  (14) 
CCS(=O)(=O)NCc1ccnc(Oc2ccccc2)c1

>  <name>  (14) 
OXQLXDFGCNBLRR-UHFFFAOYSA-N

>  <ref_pdb>  (14) 
d0174a

>  <original ID>  (14) 
OXQLXDFGCNBLRR-UHFFFAOYSA-N

>  <energy_score>  (14) 
-23.094004

>  <fragmenstein_outcome>  (14) 
['acceptable']

>  <HIPPO Compound ID>  (14) 
912

>  <distance_score>  (14) 
0.63868

$$$$
35457
     RDKit          3D

 20 21  0  0  0  0  0  0  0  0999 V2000
  -14.5131  -69.5447  -22.7322 C   0  0  0  0  0  0  0  0  0  0  0  0
  -15.0399  -69.7090  -21.3226 C   0  0  0  0  0  0  0  0  0  0  0  0
  -13.7435  -69.8595  -20.0994 S   0  0  0  0  0  0  0  0  0  0  0  0
  -12.9069  -68.6888  -20.1580 O   0  0  0  0  0  0  0  0  0  0  0  0
  -14.3492  -70.2928  -18.8544 O   0  0  0  0  0  0  0  0  0  0  0  0
  -12.8802  -71.1762  -20.6495 N   0  0  0  0  0  0  0  0  0  0  0  0
  -11.5425  -70.9790  -21.2190 C   0  0  0  0  0  0  0  0  0  0  0  0
  -10.3926  -71.1237  -20.2487 C   0  0  0  0  0  0  0  0  0  0  0  0
  -10.4901  -71.8229  -19.0421 C   0  0  0  0  0  0  0  0  0  0  0  0
   -9.3571  -71.9653  -18.2508 C   0  0  0  0  0  0  0  0  0  0  0  0
   -8.1408  -71.4826  -18.5738 N   0  0  0  0  0  0  0  0  0  0  0  0
   -8.0510  -70.8281  -19.7516 C   0  0  0  0  0  0  0  0  0  0  0  0
   -6.8535  -70.2331  -20.1118 O   0  0  0  0  0  0  0  0  0  0  0  0
   -5.6707  -70.9222  -19.9722 C   0  0  0  0  0  0  0  0  0  0  0  0
   -4.5103  -70.1378  -19.9961 C   0  0  0  0  0  0  0  0  0  0  0  0
   -3.2451  -70.7337  -19.9979 C   0  0  0  0  0  0  0  0  0  0  0  0
   -3.1339  -72.1217  -19.9706 C   0  0  0  0  0  0  0  0  0  0  0  0
   -4.2851  -72.9080  -19.9407 C   0  0  0  0  0  0  0  0  0  0  0  0
   -5.5501  -72.3110  -19.9534 C   0  0  0  0  0  0  0  0  0  0  0  0
   -9.1366  -70.6048  -20.5929 C   0  0  0  0  0  0  0  0  0  0  0  0
  1  2  1  0
  2  3  1  0
  3  4  2  0
  3  5  2  0
  3  6  1  0
  6  7  1  0
  7  8  1  0
  8  9  2  0
  9 10  1  0
 10 11  2  0
 11 12  1  0
 12 13  1  0
 13 14  1  0
 14 15  2  0
 15 16  1  0
 16 17  2  0
 17 18  1  0
 18 19  2  0
 12 20  2  0
 20  8  1  0
 19 14  1  0
M  END
>  <ref_mols>  (15) 
d0174a,d0279a

>  <fragmenstein_runtime>  (15) 
[8.896596193313599]

>  <scratch_subdir>  (15) 
['/opt/xchem-fragalysis-2/maxwin/BulkDock/SCRATCH/211010/C912-P29']

>  <tags>  (15) 
['Fragmenstein placed']

>  <fragmenstein_mode>  (15) 
['expansion']

>  <SLURM_JOB_NAME>  (15) 
BulkDock.place:Flavi_NS5_RdRp:RdRp_knitwork_thumb_site_2_pure_split4000_batch000

>  <HIPPO Pose ID>  (15) 
35457

>  <exports>  (15) 
['/opt/xchem-fragalysis-2/maxwin/BulkDock/OUTPUTS/RdRp_knitwork_thumb_site_2_pure_split4000_batch000_211010.sdf', '/opt/xchem-fragalysis-2/maxwin/BulkDock/OUTPUTS/RdRp_knitwork_thumb_site_2_pure_fragalysis.sdf']

>  <inchikey>  (15) 
OXQLXDFGCNBLRR-UHFFFAOYSA-N

>  <csv_name>  (15) 
RdRp_knitwork_thumb_site_2_pure_split4000_batch000.csv

>  <alias>  (15) 
None

>  <fragmenstein_error>  (15) 
['']

>  <SLURM_JOB_ID>  (15) 
211010

>  <original SMILES>  (15) 
CCS(=O)(=O)NCc1ccnc(Oc2ccccc2)c1

>  <name>  (15) 
OXQLXDFGCNBLRR-UHFFFAOYSA-N

>  <ref_pdb>  (15) 
d0279a

>  <original ID>  (15) 
OXQLXDFGCNBLRR-UHFFFAOYSA-N

>  <energy_score>  (15) 
-22.811976

>  <fragmenstein_outcome>  (15) 
['acceptable']

>  <HIPPO Compound ID>  (15) 
912

>  <distance_score>  (15) 
0.670378

$$$$
35589
     RDKit          3D

 18 19  0  0  0  0  0  0  0  0999 V2000
  -11.1279  -70.5622  -20.7263 C   0  0  0  0  0  0  0  0  0  0  0  0
  -12.5118  -71.0517  -20.5406 N   0  0  0  0  0  0  0  0  0  0  0  0
  -12.6182  -72.2729  -19.7852 C   0  0  0  0  0  0  0  0  0  0  0  0
  -13.3612  -73.3345  -20.2893 C   0  0  0  0  0  0  0  0  0  0  0  0
  -13.4887  -74.4965  -19.5307 C   0  0  0  0  0  0  0  0  0  0  0  0
  -12.8641  -74.5529  -18.2919 C   0  0  0  0  0  0  0  0  0  0  0  0
  -12.1340  -73.5412  -17.7684 N   0  0  0  0  0  0  0  0  0  0  0  0
  -12.0422  -72.4200  -18.5224 C   0  0  0  0  0  0  0  0  0  0  0  0
  -13.6930  -69.8667  -20.2194 S   0  0  0  0  0  0  0  0  0  0  0  0
  -13.1157  -68.5660  -20.4787 O   0  0  0  0  0  0  0  0  0  0  0  0
  -14.3002  -70.1466  -18.9286 O   0  0  0  0  0  0  0  0  0  0  0  0
  -14.9275  -70.1642  -21.4838 C   0  0  0  0  0  0  0  0  0  0  0  0
  -14.6394  -69.5529  -22.8537 C   0  0  0  0  0  0  0  0  0  0  0  0
  -13.3775  -70.0721  -23.5247 C   0  0  2  0  0  0  0  0  0  0  0  0
  -13.2365  -69.7164  -24.9911 C   0  0  0  0  0  0  0  0  0  0  0  0
  -12.1939  -70.7145  -25.4335 C   0  0  0  0  0  0  0  0  0  0  0  0
  -12.5235  -71.9386  -24.6015 C   0  0  0  0  0  0  0  0  0  0  0  0
  -13.3233  -71.5044  -23.4887 O   0  0  0  0  0  0  0  0  0  0  0  0
  1  2  1  0
  2  3  1  0
  3  4  2  0
  4  5  1  0
  5  6  2  0
  6  7  1  0
  7  8  2  0
  2  9  1  0
  9 10  2  0
  9 11  2  0
  9 12  1  0
 12 13  1  0
 14 13  1  6
 14 15  1  0
 15 16  1  0
 16 17  1  0
 17 18  1  0
  8  3  1  0
 18 14  1  0
M  END
>  <ref_mols>  (16) 
d0174a,d0279a

>  <fragmenstein_runtime>  (16) 
[1.630157470703125]

>  <scratch_subdir>  (16) 
['/opt/xchem-fragalysis-2/maxwin/BulkDock/SCRATCH/211011/C1941-P17']

>  <tags>  (16) 
['Fragmenstein placed']

>  <fragmenstein_mode>  (16) 
['expansion']

>  <SLURM_JOB_NAME>  (16) 
BulkDock.place:Flavi_NS5_RdRp:RdRp_knitwork_thumb_site_2_pure_split4000_batch001

>  <HIPPO Pose ID>  (16) 
35589

>  <exports>  (16) 
['/opt/xchem-fragalysis-2/maxwin/BulkDock/OUTPUTS/RdRp_knitwork_thumb_site_2_pure_split4000_batch001_211011.sdf', '/opt/xchem-fragalysis-2/maxwin/BulkDock/OUTPUTS/RdRp_knitwork_thumb_site_2_pure_fragalysis.sdf']

>  <inchikey>  (16) 
KASFEWYKOHRUDR-LBPRGKRZSA-N

>  <csv_name>  (16) 
RdRp_knitwork_thumb_site_2_pure_split4000_batch001.csv

>  <alias>  (16) 
None

>  <fragmenstein_error>  (16) 
['']

>  <SLURM_JOB_ID>  (16) 
211011

>  <original SMILES>  (16) 
CN(c1cccnc1)S(=O)(=O)CC[C@@H]1CCCO1

>  <name>  (16) 
KASFEWYKOHRUDR-LBPRGKRZSA-N

>  <ref_pdb>  (16) 
d0174a

>  <original ID>  (16) 
KASFEWYKOHRUDR-LBPRGKRZSA-N

>  <energy_score>  (16) 
-35.137092

>  <fragmenstein_outcome>  (16) 
['acceptable']

>  <HIPPO Compound ID>  (16) 
1941

>  <distance_score>  (16) 
0.699835

$$$$
35599
     RDKit          3D

 18 19  0  0  0  0  0  0  0  0999 V2000
  -11.1226  -70.6185  -20.6400 C   0  0  0  0  0  0  0  0  0  0  0  0
  -12.5180  -71.0988  -20.5027 N   0  0  0  0  0  0  0  0  0  0  0  0
  -12.6614  -72.3479  -19.7996 C   0  0  0  0  0  0  0  0  0  0  0  0
  -13.4555  -73.3560  -20.3355 C   0  0  0  0  0  0  0  0  0  0  0  0
  -13.6284  -74.5397  -19.6204 C   0  0  0  0  0  0  0  0  0  0  0  0
  -12.9962  -74.6718  -18.3918 C   0  0  0  0  0  0  0  0  0  0  0  0
  -12.2169  -73.7145  -17.8390 N   0  0  0  0  0  0  0  0  0  0  0  0
  -12.0846  -72.5688  -18.5481 C   0  0  0  0  0  0  0  0  0  0  0  0
  -13.6784  -69.9042  -20.1437 S   0  0  0  0  0  0  0  0  0  0  0  0
  -13.0686  -68.6082  -20.3420 O   0  0  0  0  0  0  0  0  0  0  0  0
  -14.3108  -70.2218  -18.8748 O   0  0  0  0  0  0  0  0  0  0  0  0
  -14.8964  -70.1124  -21.4406 C   0  0  0  0  0  0  0  0  0  0  0  0
  -14.4958  -69.5501  -22.8035 C   0  0  0  0  0  0  0  0  0  0  0  0
  -13.3750  -70.3118  -23.4956 C   0  0  2  0  0  0  0  0  0  0  0  0
  -13.0708  -69.8527  -24.9116 C   0  0  0  0  0  0  0  0  0  0  0  0
  -12.4002  -71.0791  -25.4753 C   0  0  0  0  0  0  0  0  0  0  0  0
  -13.2617  -72.1711  -24.8813 C   0  0  0  0  0  0  0  0  0  0  0  0
  -13.7028  -71.7066  -23.5934 O   0  0  0  0  0  0  0  0  0  0  0  0
  1  2  1  0
  2  3  1  0
  3  4  2  0
  4  5  1  0
  5  6  2  0
  6  7  1  0
  7  8  2  0
  2  9  1  0
  9 10  2  0
  9 11  2  0
  9 12  1  0
 12 13  1  0
 14 13  1  6
 14 15  1  0
 15 16  1  0
 16 17  1  0
 17 18  1  0
  8  3  1  0
 18 14  1  0
M  END
>  <ref_mols>  (17) 
d0174a,d0279a

>  <fragmenstein_runtime>  (17) 
[2.3932273387908936]

>  <scratch_subdir>  (17) 
['/opt/xchem-fragalysis-2/maxwin/BulkDock/SCRATCH/211011/C1941-P29']

>  <tags>  (17) 
['Fragmenstein placed']

>  <fragmenstein_mode>  (17) 
['expansion']

>  <SLURM_JOB_NAME>  (17) 
BulkDock.place:Flavi_NS5_RdRp:RdRp_knitwork_thumb_site_2_pure_split4000_batch001

>  <HIPPO Pose ID>  (17) 
35599

>  <exports>  (17) 
['/opt/xchem-fragalysis-2/maxwin/BulkDock/OUTPUTS/RdRp_knitwork_thumb_site_2_pure_split4000_batch001_211011.sdf', '/opt/xchem-fragalysis-2/maxwin/BulkDock/OUTPUTS/RdRp_knitwork_thumb_site_2_pure_fragalysis.sdf']

>  <inchikey>  (17) 
KASFEWYKOHRUDR-LBPRGKRZSA-N

>  <csv_name>  (17) 
RdRp_knitwork_thumb_site_2_pure_split4000_batch001.csv

>  <alias>  (17) 
None

>  <fragmenstein_error>  (17) 
['']

>  <SLURM_JOB_ID>  (17) 
211011

>  <original SMILES>  (17) 
CN(c1cccnc1)S(=O)(=O)CC[C@@H]1CCCO1

>  <name>  (17) 
KASFEWYKOHRUDR-LBPRGKRZSA-N

>  <ref_pdb>  (17) 
d0279a

>  <original ID>  (17) 
KASFEWYKOHRUDR-LBPRGKRZSA-N

>  <energy_score>  (17) 
-35.692862

>  <fragmenstein_outcome>  (17) 
['acceptable']

>  <HIPPO Compound ID>  (17) 
1941

>  <distance_score>  (17) 
0.722803

$$$$
35837
     RDKit          3D

 15 15  0  0  0  0  0  0  0  0999 V2000
  -15.0078  -70.3499  -22.5575 C   0  0  0  0  0  0  0  0  0  0  0  0
  -14.4714  -69.1955  -21.7501 C   0  0  0  0  0  0  0  0  0  0  0  0
  -13.6579  -69.6728  -20.2295 S   0  0  0  0  0  0  0  0  0  0  0  0
  -12.8214  -68.5730  -19.8211 O   0  0  0  0  0  0  0  0  0  0  0  0
  -14.6230  -70.2377  -19.3104 O   0  0  0  0  0  0  0  0  0  0  0  0
  -12.6628  -70.9358  -20.6647 N   0  0  0  0  0  0  0  0  0  0  0  0
  -11.2994  -70.6783  -21.1286 C   0  0  0  0  0  0  0  0  0  0  0  0
  -10.2132  -71.1963  -20.1554 C   0  0  1  0  0  0  0  0  0  0  0  0
   -8.8524  -70.6092  -20.5730 C   0  0  0  0  0  0  0  0  0  0  0  0
   -7.6840  -71.5369  -20.2549 C   0  0  0  0  0  0  0  0  0  0  0  0
   -7.3911  -71.7519  -18.7768 C   0  0  0  0  0  0  0  0  0  0  0  0
   -8.5712  -72.2297  -17.9314 C   0  0  0  0  0  0  0  0  0  0  0  0
   -9.4872  -71.1231  -17.6566 N   0  0  0  0  0  0  0  0  0  0  0  0
  -10.1023  -71.2706  -16.3351 C   0  0  0  0  0  0  0  0  0  0  0  0
  -10.5464  -70.9267  -18.6692 C   0  0  0  0  0  0  0  0  0  0  0  0
  1  2  1  0
  2  3  1  0
  3  4  2  0
  3  5  2  0
  3  6  1  0
  6  7  1  0
  8  7  1  6
  8  9  1  0
  9 10  1  0
 10 11  1  0
 11 12  1  0
 12 13  1  0
 13 14  1  0
 13 15  1  0
 15  8  1  0
M  END
>  <ref_mols>  (18) 
d0174a,d0176a

>  <fragmenstein_runtime>  (18) 
[1.997307300567627]

>  <scratch_subdir>  (18) 
['/opt/xchem-fragalysis-2/maxwin/BulkDock/SCRATCH/211011/C2182-P17']

>  <tags>  (18) 
['Fragmenstein placed']

>  <fragmenstein_mode>  (18) 
['expansion']

>  <SLURM_JOB_NAME>  (18) 
BulkDock.place:Flavi_NS5_RdRp:RdRp_knitwork_thumb_site_2_pure_split4000_batch001

>  <HIPPO Pose ID>  (18) 
35837

>  <exports>  (18) 
['/opt/xchem-fragalysis-2/maxwin/BulkDock/OUTPUTS/RdRp_knitwork_thumb_site_2_pure_split4000_batch001_211011.sdf', '/opt/xchem-fragalysis-2/maxwin/BulkDock/OUTPUTS/RdRp_knitwork_thumb_site_2_pure_fragalysis.sdf']

>  <inchikey>  (18) 
LALVFVNFQBEZEQ-SNVBAGLBSA-N

>  <csv_name>  (18) 
RdRp_knitwork_thumb_site_2_pure_split4000_batch001.csv

>  <alias>  (18) 
None

>  <fragmenstein_error>  (18) 
['']

>  <SLURM_JOB_ID>  (18) 
211011

>  <original SMILES>  (18) 
CCS(=O)(=O)NC[C@H]1CCCCN(C)C1

>  <name>  (18) 
LALVFVNFQBEZEQ-SNVBAGLBSA-N

>  <ref_pdb>  (18) 
d0174a

>  <original ID>  (18) 
LALVFVNFQBEZEQ-SNVBAGLBSA-N

>  <energy_score>  (18) 
-32.259437

>  <fragmenstein_outcome>  (18) 
['acceptable']

>  <HIPPO Compound ID>  (18) 
2182

>  <distance_score>  (18) 
0.69636

$$$$
35844
     RDKit          3D

 15 15  0  0  0  0  0  0  0  0999 V2000
  -14.4431  -69.5804  -22.7075 C   0  0  0  0  0  0  0  0  0  0  0  0
  -15.0532  -69.8595  -21.3498 C   0  0  0  0  0  0  0  0  0  0  0  0
  -13.8513  -69.8419  -20.0246 S   0  0  0  0  0  0  0  0  0  0  0  0
  -13.1527  -68.5820  -20.0427 O   0  0  0  0  0  0  0  0  0  0  0  0
  -14.4889  -70.3231  -18.8151 O   0  0  0  0  0  0  0  0  0  0  0  0
  -12.7924  -71.0622  -20.4707 N   0  0  0  0  0  0  0  0  0  0  0  0
  -11.4369  -70.7074  -20.9108 C   0  0  0  0  0  0  0  0  0  0  0  0
  -10.3336  -71.1772  -19.9346 C   0  0  1  0  0  0  0  0  0  0  0  0
   -9.0018  -70.5466  -20.3662 C   0  0  0  0  0  0  0  0  0  0  0  0
   -7.8024  -71.4453  -20.0878 C   0  0  0  0  0  0  0  0  0  0  0  0
   -7.4833  -71.6763  -18.6188 C   0  0  0  0  0  0  0  0  0  0  0  0
   -8.6417  -72.1847  -17.7619 C   0  0  0  0  0  0  0  0  0  0  0  0
   -9.5796  -71.1033  -17.4507 N   0  0  0  0  0  0  0  0  0  0  0  0
  -10.1821  -71.3162  -16.1312 C   0  0  0  0  0  0  0  0  0  0  0  0
  -10.6517  -70.8922  -18.4506 C   0  0  0  0  0  0  0  0  0  0  0  0
  1  2  1  0
  2  3  1  0
  3  4  2  0
  3  5  2  0
  3  6  1  0
  6  7  1  0
  8  7  1  6
  8  9  1  0
  9 10  1  0
 10 11  1  0
 11 12  1  0
 12 13  1  0
 13 14  1  0
 13 15  1  0
 15  8  1  0
M  END
>  <ref_mols>  (19) 
d0174a,d0176a

>  <fragmenstein_runtime>  (19) 
[2.089524507522583]

>  <scratch_subdir>  (19) 
['/opt/xchem-fragalysis-2/maxwin/BulkDock/SCRATCH/211011/C2182-P18']

>  <tags>  (19) 
['Fragmenstein placed']

>  <fragmenstein_mode>  (19) 
['expansion']

>  <SLURM_JOB_NAME>  (19) 
BulkDock.place:Flavi_NS5_RdRp:RdRp_knitwork_thumb_site_2_pure_split4000_batch001

>  <HIPPO Pose ID>  (19) 
35844

>  <exports>  (19) 
['/opt/xchem-fragalysis-2/maxwin/BulkDock/OUTPUTS/RdRp_knitwork_thumb_site_2_pure_split4000_batch001_211011.sdf', '/opt/xchem-fragalysis-2/maxwin/BulkDock/OUTPUTS/RdRp_knitwork_thumb_site_2_pure_fragalysis.sdf']

>  <inchikey>  (19) 
LALVFVNFQBEZEQ-SNVBAGLBSA-N

>  <csv_name>  (19) 
RdRp_knitwork_thumb_site_2_pure_split4000_batch001.csv

>  <alias>  (19) 
None

>  <fragmenstein_error>  (19) 
['']

>  <SLURM_JOB_ID>  (19) 
211011

>  <original SMILES>  (19) 
CCS(=O)(=O)NC[C@H]1CCCCN(C)C1

>  <name>  (19) 
LALVFVNFQBEZEQ-SNVBAGLBSA-N

>  <ref_pdb>  (19) 
d0176a

>  <original ID>  (19) 
LALVFVNFQBEZEQ-SNVBAGLBSA-N

>  <energy_score>  (19) 
-31.446506

>  <fragmenstein_outcome>  (19) 
['acceptable']

>  <HIPPO Compound ID>  (19) 
2182

>  <distance_score>  (19) 
0.665773

$$$$
36351
     RDKit          3D

 23 24  0  0  0  0  0  0  0  0999 V2000
  -11.6848  -70.6948  -19.0931 O   0  0  0  0  0  0  0  0  0  0  0  0
  -10.7122  -70.9208  -19.7962 C   0  0  0  0  0  0  0  0  0  0  0  0
  -10.6785  -70.9036  -21.1575 O   0  0  0  0  0  0  0  0  0  0  0  0
  -11.8538  -70.4124  -21.8240 C   0  0  0  0  0  0  0  0  0  0  0  0
  -13.0591  -71.3448  -21.6654 C   0  0  0  0  0  0  0  0  0  0  0  0
  -14.3671  -70.6172  -21.3652 C   0  0  1  0  0  0  0  0  0  0  0  0
  -14.3717  -69.7732  -20.0842 C   0  0  0  0  0  0  0  0  0  0  0  0
  -15.4534  -68.7546  -20.3470 C   0  0  0  0  0  0  0  0  0  0  0  0
  -15.4009  -68.5631  -21.7650 N   0  0  0  0  0  0  0  0  0  0  0  0
  -14.7651  -69.5999  -22.4156 C   0  0  0  0  0  0  0  0  0  0  0  0
  -14.6096  -69.6909  -23.6191 O   0  0  0  0  0  0  0  0  0  0  0  0
   -9.3632  -71.2732  -19.2694 C   0  0  0  0  0  0  0  0  0  0  0  0
   -8.2157  -70.8751  -19.9432 C   0  0  0  0  0  0  0  0  0  0  0  0
   -6.9547  -71.1716  -19.3975 C   0  0  0  0  0  0  0  0  0  0  0  0
   -5.7275  -70.6929  -20.1400 C   0  0  1  0  0  0  0  0  0  0  0  0
   -5.9331  -69.3000  -20.4134 O   0  0  0  0  0  0  0  0  0  0  0  0
   -4.3371  -70.9269  -19.5479 C   0  0  0  0  0  0  0  0  0  0  0  0
   -3.4230  -70.2352  -20.2766 F   0  0  0  0  0  0  0  0  0  0  0  0
   -4.2384  -70.5041  -18.2710 F   0  0  0  0  0  0  0  0  0  0  0  0
   -4.0007  -72.2306  -19.6183 F   0  0  0  0  0  0  0  0  0  0  0  0
   -6.9159  -71.9058  -18.2115 C   0  0  0  0  0  0  0  0  0  0  0  0
   -8.1132  -72.2614  -17.6042 C   0  0  0  0  0  0  0  0  0  0  0  0
   -9.3308  -71.9403  -18.0873 N   0  0  0  0  0  0  0  0  0  0  0  0
  1  2  2  0
  2  3  1  0
  3  4  1  0
  4  5  1  0
  6  5  1  6
  6  7  1  0
  7  8  1  0
  8  9  1  0
  9 10  1  0
 10 11  2  0
  2 12  1  0
 12 13  2  0
 13 14  1  0
 14 15  1  0
 15 16  1  1
 15 17  1  0
 17 18  1  0
 17 19  1  0
 17 20  1  0
 14 21  2  0
 21 22  1  0
 22 23  2  0
 10  6  1  0
 23 12  1  0
M  END
>  <ref_mols>  (20) 
d0566a,d0615a

>  <fragmenstein_runtime>  (20) 
[9.992257356643677]

>  <scratch_subdir>  (20) 
['/opt/xchem-fragalysis-2/maxwin/BulkDock/SCRATCH/211011/C2879-P45']

>  <tags>  (20) 
['Fragmenstein placed']

>  <fragmenstein_mode>  (20) 
['expansion']

>  <SLURM_JOB_NAME>  (20) 
BulkDock.place:Flavi_NS5_RdRp:RdRp_knitwork_thumb_site_2_pure_split4000_batch001

>  <HIPPO Pose ID>  (20) 
36351

>  <exports>  (20) 
['/opt/xchem-fragalysis-2/maxwin/BulkDock/OUTPUTS/RdRp_knitwork_thumb_site_2_pure_split4000_batch001_211011.sdf', '/opt/xchem-fragalysis-2/maxwin/BulkDock/OUTPUTS/RdRp_knitwork_thumb_site_2_pure_fragalysis.sdf']

>  <inchikey>  (20) 
KXHVTALLWUZYLQ-LDYMZIIASA-N

>  <csv_name>  (20) 
RdRp_knitwork_thumb_site_2_pure_split4000_batch001.csv

>  <alias>  (20) 
None

>  <fragmenstein_error>  (20) 
['']

>  <SLURM_JOB_ID>  (20) 
211011

>  <original SMILES>  (20) 
O=C(OCC[C@H]1CCNC1=O)c1cc([C@@H](O)C(F)(F)F)ccn1

>  <name>  (20) 
KXHVTALLWUZYLQ-LDYMZIIASA-N

>  <ref_pdb>  (20) 
d0566a

>  <original ID>  (20) 
KXHVTALLWUZYLQ-LDYMZIIASA-N

>  <energy_score>  (20) 
-50.93337

>  <fragmenstein_outcome>  (20) 
['acceptable']

>  <HIPPO Compound ID>  (20) 
2879

>  <distance_score>  (20) 
0.911944

$$$$
37652
     RDKit          3D

 22 23  0  0  0  0  0  0  0  0999 V2000
  -13.1113  -70.3306  -20.4080 C   0  0  0  0  0  0  0  0  0  0  0  0
  -12.0330  -71.0500  -21.2185 C   0  0  0  0  0  0  0  0  0  0  0  0
  -12.5525  -72.4149  -21.6798 C   0  0  0  0  0  0  0  0  0  0  0  0
  -10.7102  -71.2117  -20.4925 C   0  0  0  0  0  0  0  0  0  0  0  0
  -10.6039  -71.3494  -19.1025 C   0  0  0  0  0  0  0  0  0  0  0  0
   -9.3527  -71.4988  -18.4921 C   0  0  0  0  0  0  0  0  0  0  0  0
   -8.1855  -71.5187  -19.2583 C   0  0  0  0  0  0  0  0  0  0  0  0
   -6.9163  -71.6658  -18.6017 N   0  0  0  0  0  0  0  0  0  0  0  0
   -6.7027  -72.8424  -17.7442 C   0  0  0  0  0  0  0  0  0  0  0  0
   -5.5648  -70.8133  -19.1705 S   0  0  0  0  0  0  0  0  0  0  0  0
   -6.0065  -69.7270  -20.0131 O   0  0  0  0  0  0  0  0  0  0  0  0
   -4.7008  -70.5765  -18.0369 O   0  0  0  0  0  0  0  0  0  0  0  0
   -4.7725  -72.0036  -20.2356 C   0  0  0  0  0  0  0  0  0  0  0  0
   -3.2486  -72.0042  -20.1866 C   0  0  0  0  0  0  0  0  0  0  0  0
   -2.4557  -70.7805  -20.6833 C   0  0  2  0  0  0  0  0  0  0  0  0
   -2.2734  -69.6797  -19.6304 C   0  0  0  0  0  0  0  0  0  0  0  0
   -1.3921  -68.5684  -20.1836 C   0  0  0  0  0  0  0  0  0  0  0  0
   -1.9621  -68.0649  -21.4989 C   0  0  0  0  0  0  0  0  0  0  0  0
   -2.0973  -69.1364  -22.4428 O   0  0  0  0  0  0  0  0  0  0  0  0
   -2.9752  -70.1624  -21.9779 C   0  0  0  0  0  0  0  0  0  0  0  0
   -8.2956  -71.4408  -20.6448 C   0  0  0  0  0  0  0  0  0  0  0  0
   -9.5372  -71.2667  -21.2542 C   0  0  0  0  0  0  0  0  0  0  0  0
  1  2  1  0
  2  3  1  0
  2  4  1  0
  4  5  2  0
  5  6  1  0
  6  7  2  0
  7  8  1  0
  8  9  1  0
  8 10  1  0
 10 11  2  0
 10 12  2  0
 10 13  1  0
 13 14  1  0
 15 14  1  1
 15 16  1  0
 16 17  1  0
 17 18  1  0
 18 19  1  0
 19 20  1  0
  7 21  1  0
 21 22  2  0
 22  4  1  0
 20 15  1  0
M  END
>  <ref_mols>  (21) 
d0174a,d0376a

>  <fragmenstein_runtime>  (21) 
[30.923250198364258]

>  <scratch_subdir>  (21) 
['/opt/xchem-fragalysis-2/maxwin/BulkDock/SCRATCH/211010/C2838-P33']

>  <tags>  (21) 
['Fragmenstein placed']

>  <fragmenstein_mode>  (21) 
['expansion']

>  <SLURM_JOB_NAME>  (21) 
BulkDock.place:Flavi_NS5_RdRp:RdRp_knitwork_thumb_site_2_pure_split4000_batch000

>  <HIPPO Pose ID>  (21) 
37652

>  <exports>  (21) 
['/opt/xchem-fragalysis-2/maxwin/BulkDock/OUTPUTS/RdRp_knitwork_thumb_site_2_pure_split4000_batch000_211010.sdf', '/opt/xchem-fragalysis-2/maxwin/BulkDock/OUTPUTS/RdRp_knitwork_thumb_site_2_pure_fragalysis.sdf']

>  <inchikey>  (21) 
DBTIAPJFFWHBSF-HNNXBMFYSA-N

>  <csv_name>  (21) 
RdRp_knitwork_thumb_site_2_pure_split4000_batch000.csv

>  <alias>  (21) 
None

>  <fragmenstein_error>  (21) 
['']

>  <SLURM_JOB_ID>  (21) 
211010

>  <original SMILES>  (21) 
CC(C)c1ccc(N(C)S(=O)(=O)CC[C@@H]2CCCOC2)cc1

>  <name>  (21) 
DBTIAPJFFWHBSF-HNNXBMFYSA-N

>  <ref_pdb>  (21) 
d0376a

>  <original ID>  (21) 
DBTIAPJFFWHBSF-HNNXBMFYSA-N

>  <energy_score>  (21) 
-61.555293

>  <fragmenstein_outcome>  (21) 
['acceptable']

>  <HIPPO Compound ID>  (21) 
2838

>  <distance_score>  (21) 
0.976661

$$$$
38393
     RDKit          3D

 23 26  0  0  0  0  0  0  0  0999 V2000
   -6.4665  -72.5328  -17.4545 O   0  0  0  0  0  0  0  0  0  0  0  0
   -7.2206  -72.0928  -18.3171 C   0  0  0  0  0  0  0  0  0  0  0  0
   -8.6042  -71.7728  -17.9367 C   0  0  0  0  0  0  0  0  0  0  0  0
   -9.4770  -71.3337  -18.8407 C   0  0  0  0  0  0  0  0  0  0  0  0
   -9.0024  -71.1944  -20.2391 C   0  0  0  0  0  0  0  0  0  0  0  0
  -10.0151  -70.7999  -21.2620 C   0  0  0  0  0  0  0  0  0  0  0  0
   -9.7966  -71.0853  -22.6144 C   0  0  0  0  0  0  0  0  0  0  0  0
  -10.7838  -70.7976  -23.5526 C   0  0  0  0  0  0  0  0  0  0  0  0
  -11.9701  -70.2374  -23.1096 C   0  0  0  0  0  0  0  0  0  0  0  0
  -12.2137  -69.9323  -21.8181 N   0  0  0  0  0  0  0  0  0  0  0  0
  -11.2300  -70.2108  -20.9292 C   0  0  0  0  0  0  0  0  0  0  0  0
   -7.7828  -71.4513  -20.6094 N   0  0  0  0  0  0  0  0  0  0  0  0
   -6.8919  -71.8861  -19.6451 N   0  0  0  0  0  0  0  0  0  0  0  0
   -5.5215  -72.1096  -20.0699 C   0  0  0  0  0  0  0  0  0  0  0  0
   -4.7355  -70.8246  -20.0740 C   0  0  0  0  0  0  0  0  0  0  0  0
   -5.0571  -69.7532  -19.4156 N   0  0  0  0  0  0  0  0  0  0  0  0
   -4.0674  -68.7825  -19.7330 O   0  0  0  0  0  0  0  0  0  0  0  0
   -3.4126  -69.2278  -20.9290 C   0  0  1  0  0  0  0  0  0  0  0  0
   -2.1169  -68.6968  -21.1530 O   0  0  0  0  0  0  0  0  0  0  0  0
   -1.1706  -69.0955  -20.1708 C   0  0  0  0  0  0  0  0  0  0  0  0
   -0.9844  -70.6036  -20.2358 C   0  0  0  0  0  0  0  0  0  0  0  0
   -2.3067  -71.3077  -19.9580 C   0  0  0  0  0  0  0  0  0  0  0  0
   -3.4398  -70.7378  -20.8122 C   0  0  1  0  0  0  0  0  0  0  0  0
  1  2  2  0
  2  3  1  0
  3  4  2  0
  4  5  1  0
  5  6  1  0
  6  7  2  0
  7  8  1  0
  8  9  2  0
  9 10  1  0
 10 11  2  0
  5 12  2  0
 12 13  1  0
 13 14  1  0
 14 15  1  0
 15 16  2  0
 16 17  1  0
 18 17  1  1
 18 19  1  0
 19 20  1  0
 20 21  1  0
 21 22  1  0
 23 22  1  1
 13  2  1  0
 23 15  1  0
 11  6  1  0
 23 18  1  0
M  END
>  <ref_mols>  (22) 
d0379a,d0615a

>  <fragmenstein_runtime>  (22) 
[1.7146377563476562]

>  <scratch_subdir>  (22) 
['/opt/xchem-fragalysis-2/maxwin/BulkDock/SCRATCH/211010/C4744-P50']

>  <tags>  (22) 
['Fragmenstein placed']

>  <fragmenstein_mode>  (22) 
['expansion']

>  <SLURM_JOB_NAME>  (22) 
BulkDock.place:Flavi_NS5_RdRp:RdRp_knitwork_thumb_site_2_pure_split4000_batch000

>  <HIPPO Pose ID>  (22) 
38393

>  <exports>  (22) 
['/opt/xchem-fragalysis-2/maxwin/BulkDock/OUTPUTS/RdRp_knitwork_thumb_site_2_pure_split4000_batch000_211010.sdf', '/opt/xchem-fragalysis-2/maxwin/BulkDock/OUTPUTS/RdRp_knitwork_thumb_site_2_pure_fragalysis.sdf']

>  <inchikey>  (22) 
NVJOCMJLGMQHDF-BLLLJJGKSA-N

>  <csv_name>  (22) 
RdRp_knitwork_thumb_site_2_pure_split4000_batch000.csv

>  <alias>  (22) 
None

>  <fragmenstein_error>  (22) 
['']

>  <SLURM_JOB_ID>  (22) 
211010

>  <original SMILES>  (22) 
O=c1ccc(-c2cccnc2)nn1CC1=NO[C@H]2OCCC[C@@H]12

>  <name>  (22) 
NVJOCMJLGMQHDF-BLLLJJGKSA-N

>  <ref_pdb>  (22) 
d0615a

>  <original ID>  (22) 
NVJOCMJLGMQHDF-BLLLJJGKSA-N

>  <energy_score>  (22) 
-51.826838

>  <fragmenstein_outcome>  (22) 
['acceptable']

>  <HIPPO Compound ID>  (22) 
4744

>  <distance_score>  (22) 
0.964636

$$$$
38398
     RDKit          3D

 23 26  0  0  0  0  0  0  0  0999 V2000
   -6.6425  -72.5849  -17.2996 O   0  0  0  0  0  0  0  0  0  0  0  0
   -7.3424  -72.1193  -18.1940 C   0  0  0  0  0  0  0  0  0  0  0  0
   -8.6992  -71.6729  -17.8478 C   0  0  0  0  0  0  0  0  0  0  0  0
   -9.5294  -71.2150  -18.7819 C   0  0  0  0  0  0  0  0  0  0  0  0
   -9.0433  -71.2000  -20.1832 C   0  0  0  0  0  0  0  0  0  0  0  0
  -10.0223  -70.8101  -21.2444 C   0  0  0  0  0  0  0  0  0  0  0  0
   -9.7518  -71.0954  -22.5877 C   0  0  0  0  0  0  0  0  0  0  0  0
  -10.7018  -70.8134  -23.5656 C   0  0  0  0  0  0  0  0  0  0  0  0
  -11.9082  -70.2607  -23.1715 C   0  0  0  0  0  0  0  0  0  0  0  0
  -12.2052  -69.9581  -21.8911 N   0  0  0  0  0  0  0  0  0  0  0  0
  -11.2555  -70.2309  -20.9635 C   0  0  0  0  0  0  0  0  0  0  0  0
   -7.8402  -71.5593  -20.5222 N   0  0  0  0  0  0  0  0  0  0  0  0
   -6.9811  -71.9891  -19.5208 N   0  0  0  0  0  0  0  0  0  0  0  0
   -5.6171  -72.3362  -19.9084 C   0  0  0  0  0  0  0  0  0  0  0  0
   -4.7650  -71.1172  -20.1231 C   0  0  0  0  0  0  0  0  0  0  0  0
   -5.0233  -69.9923  -19.4507 N   0  0  0  0  0  0  0  0  0  0  0  0
   -4.0255  -68.8060  -20.0024 S   0  0  0  0  0  0  0  0  0  0  0  0
   -3.1409  -69.7632  -21.1003 C   0  0  0  0  0  0  0  0  0  0  0  0
   -2.0959  -69.3935  -21.9590 C   0  0  0  0  0  0  0  0  0  0  0  0
   -1.5439  -70.3845  -22.7751 C   0  0  0  0  0  0  0  0  0  0  0  0
   -1.9901  -71.6989  -22.7134 C   0  0  0  0  0  0  0  0  0  0  0  0
   -3.0335  -72.0500  -21.8531 C   0  0  0  0  0  0  0  0  0  0  0  0
   -3.6400  -71.0650  -21.0365 C   0  0  0  0  0  0  0  0  0  0  0  0
  1  2  2  0
  2  3  1  0
  3  4  2  0
  4  5  1  0
  5  6  1  0
  6  7  2  0
  7  8  1  0
  8  9  2  0
  9 10  1  0
 10 11  2  0
  5 12  2  0
 12 13  1  0
 13 14  1  0
 14 15  1  0
 15 16  2  0
 16 17  1  0
 17 18  1  0
 18 19  2  0
 19 20  1  0
 20 21  2  0
 21 22  1  0
 22 23  2  0
 13  2  1  0
 23 15  1  0
 11  6  1  0
 23 18  1  0
M  END
>  <ref_mols>  (23) 
d0379a,d0615a

>  <fragmenstein_runtime>  (23) 
[1.5400981903076172]

>  <scratch_subdir>  (23) 
['/opt/xchem-fragalysis-2/maxwin/BulkDock/SCRATCH/211010/C4745-P50']

>  <tags>  (23) 
['Fragmenstein placed']

>  <fragmenstein_mode>  (23) 
['expansion']

>  <SLURM_JOB_NAME>  (23) 
BulkDock.place:Flavi_NS5_RdRp:RdRp_knitwork_thumb_site_2_pure_split4000_batch000

>  <HIPPO Pose ID>  (23) 
38398

>  <exports>  (23) 
['/opt/xchem-fragalysis-2/maxwin/BulkDock/OUTPUTS/RdRp_knitwork_thumb_site_2_pure_split4000_batch000_211010.sdf', '/opt/xchem-fragalysis-2/maxwin/BulkDock/OUTPUTS/RdRp_knitwork_thumb_site_2_pure_fragalysis.sdf']

>  <inchikey>  (23) 
SRYIZWIXZDSVQX-UHFFFAOYSA-N

>  <csv_name>  (23) 
RdRp_knitwork_thumb_site_2_pure_split4000_batch000.csv

>  <alias>  (23) 
None

>  <fragmenstein_error>  (23) 
['']

>  <SLURM_JOB_ID>  (23) 
211010

>  <original SMILES>  (23) 
O=c1ccc(-c2cccnc2)nn1Cc1nsc2ccccc12

>  <name>  (23) 
SRYIZWIXZDSVQX-UHFFFAOYSA-N

>  <ref_pdb>  (23) 
d0615a

>  <original ID>  (23) 
SRYIZWIXZDSVQX-UHFFFAOYSA-N

>  <energy_score>  (23) 
-54.107404

>  <fragmenstein_outcome>  (23) 
['acceptable']

>  <HIPPO Compound ID>  (23) 
4745

>  <distance_score>  (23) 
0.981398

$$$$
38481
     RDKit          3D

 20 22  0  0  0  0  0  0  0  0999 V2000
   -6.4194  -72.5370  -17.4640 O   0  0  0  0  0  0  0  0  0  0  0  0
   -7.1706  -72.0903  -18.3258 C   0  0  0  0  0  0  0  0  0  0  0  0
   -8.5453  -71.7449  -17.9335 C   0  0  0  0  0  0  0  0  0  0  0  0
   -9.4242  -71.3048  -18.8310 C   0  0  0  0  0  0  0  0  0  0  0  0
   -8.9680  -71.1968  -20.2379 C   0  0  0  0  0  0  0  0  0  0  0  0
   -9.9894  -70.8062  -21.2557 C   0  0  0  0  0  0  0  0  0  0  0  0
   -9.7749  -71.0862  -22.6098 C   0  0  0  0  0  0  0  0  0  0  0  0
  -10.7658  -70.7990  -23.5444 C   0  0  0  0  0  0  0  0  0  0  0  0
  -11.9539  -70.2470  -23.0964 C   0  0  0  0  0  0  0  0  0  0  0  0
  -12.1969  -69.9505  -21.8028 N   0  0  0  0  0  0  0  0  0  0  0  0
  -11.2075  -70.2253  -20.9184 C   0  0  0  0  0  0  0  0  0  0  0  0
   -7.7570  -71.4777  -20.6184 N   0  0  0  0  0  0  0  0  0  0  0  0
   -6.8517  -71.8997  -19.6572 N   0  0  0  0  0  0  0  0  0  0  0  0
   -5.4806  -72.1478  -20.0993 C   0  0  0  0  0  0  0  0  0  0  0  0
   -4.6480  -70.8980  -20.2630 C   0  0  0  0  0  0  0  0  0  0  0  0
   -3.5065  -70.9108  -21.0603 C   0  0  0  0  0  0  0  0  0  0  0  0
   -2.7899  -69.7321  -21.2365 C   0  0  0  0  0  0  0  0  0  0  0  0
   -3.2385  -68.5981  -20.5997 C   0  0  0  0  0  0  0  0  0  0  0  0
   -4.3277  -68.6144  -19.8078 N   0  0  0  0  0  0  0  0  0  0  0  0
   -5.0306  -69.7711  -19.6257 N   0  0  0  0  0  0  0  0  0  0  0  0
  1  2  2  0
  2  3  1  0
  3  4  2  0
  4  5  1  0
  5  6  1  0
  6  7  2  0
  7  8  1  0
  8  9  2  0
  9 10  1  0
 10 11  2  0
  5 12  2  0
 12 13  1  0
 13 14  1  0
 14 15  1  0
 15 16  2  0
 16 17  1  0
 17 18  2  0
 18 19  1  0
 19 20  2  0
 13  2  1  0
 20 15  1  0
 11  6  1  0
M  END
>  <ref_mols>  (24) 
d0379a,d0615a

>  <fragmenstein_runtime>  (24) 
[1.225682020187378]

>  <scratch_subdir>  (24) 
['/opt/xchem-fragalysis-2/maxwin/BulkDock/SCRATCH/211010/C4772-P50']

>  <tags>  (24) 
['Fragmenstein placed']

>  <fragmenstein_mode>  (24) 
['expansion']

>  <SLURM_JOB_NAME>  (24) 
BulkDock.place:Flavi_NS5_RdRp:RdRp_knitwork_thumb_site_2_pure_split4000_batch000

>  <HIPPO Pose ID>  (24) 
38481

>  <exports>  (24) 
['/opt/xchem-fragalysis-2/maxwin/BulkDock/OUTPUTS/RdRp_knitwork_thumb_site_2_pure_split4000_batch000_211010.sdf', '/opt/xchem-fragalysis-2/maxwin/BulkDock/OUTPUTS/RdRp_knitwork_thumb_site_2_pure_fragalysis.sdf']

>  <inchikey>  (24) 
WLYXIMRRAIPHPY-UHFFFAOYSA-N

>  <csv_name>  (24) 
RdRp_knitwork_thumb_site_2_pure_split4000_batch000.csv

>  <alias>  (24) 
None

>  <fragmenstein_error>  (24) 
['']

>  <SLURM_JOB_ID>  (24) 
211010

>  <original SMILES>  (24) 
O=c1ccc(-c2cccnc2)nn1Cc1cccnn1

>  <name>  (24) 
WLYXIMRRAIPHPY-UHFFFAOYSA-N

>  <ref_pdb>  (24) 
d0615a

>  <original ID>  (24) 
WLYXIMRRAIPHPY-UHFFFAOYSA-N

>  <energy_score>  (24) 
-20.504021

>  <fragmenstein_outcome>  (24) 
['acceptable']

>  <HIPPO Compound ID>  (24) 
4772

>  <distance_score>  (24) 
0.998386

$$$$
38666
     RDKit          3D

 19 20  0  0  0  0  0  0  0  0999 V2000
   -2.3033  -68.9900  -22.0659 C   0  0  0  0  0  0  0  0  0  0  0  0
   -3.1533  -69.2150  -20.8363 C   0  0  0  0  0  0  0  0  0  0  0  0
   -3.8979  -70.4304  -20.9846 O   0  0  0  0  0  0  0  0  0  0  0  0
   -4.7639  -70.6498  -19.9463 C   0  0  0  0  0  0  0  0  0  0  0  0
   -4.8716  -69.9129  -18.9726 O   0  0  0  0  0  0  0  0  0  0  0  0
   -5.5344  -71.9385  -20.1600 C   0  0  0  0  0  0  0  0  0  0  0  0
   -6.9019  -71.7759  -19.6821 N   0  0  0  0  0  0  0  0  0  0  0  0
   -7.8301  -71.3213  -20.5998 N   0  0  0  0  0  0  0  0  0  0  0  0
   -9.0490  -71.1378  -20.1898 C   0  0  0  0  0  0  0  0  0  0  0  0
  -10.0973  -70.7240  -21.1602 C   0  0  0  0  0  0  0  0  0  0  0  0
   -9.9872  -71.0815  -22.5070 C   0  0  0  0  0  0  0  0  0  0  0  0
  -11.0008  -70.7442  -23.3978 C   0  0  0  0  0  0  0  0  0  0  0  0
  -12.1087  -70.0738  -22.9075 C   0  0  0  0  0  0  0  0  0  0  0  0
  -12.2520  -69.7139  -21.6138 N   0  0  0  0  0  0  0  0  0  0  0  0
  -11.2402  -70.0358  -20.7735 C   0  0  0  0  0  0  0  0  0  0  0  0
   -9.4917  -71.3743  -18.7959 C   0  0  0  0  0  0  0  0  0  0  0  0
   -8.5810  -71.8235  -17.9346 C   0  0  0  0  0  0  0  0  0  0  0  0
   -7.1918  -72.0639  -18.3590 C   0  0  0  0  0  0  0  0  0  0  0  0
   -6.3979  -72.5058  -17.5347 O   0  0  0  0  0  0  0  0  0  0  0  0
  1  2  1  0
  2  3  1  0
  3  4  1  0
  4  5  2  0
  4  6  1  0
  6  7  1  0
  7  8  1  0
  8  9  2  0
  9 10  1  0
 10 11  2  0
 11 12  1  0
 12 13  2  0
 13 14  1  0
 14 15  2  0
  9 16  1  0
 16 17  2  0
 17 18  1  0
 18 19  2  0
 18  7  1  0
 15 10  1  0
M  END
>  <ref_mols>  (25) 
d0379a,d0615a

>  <fragmenstein_runtime>  (25) 
[1.3267207145690918]

>  <scratch_subdir>  (25) 
['/opt/xchem-fragalysis-2/maxwin/BulkDock/SCRATCH/211010/C5226-P35']

>  <tags>  (25) 
['Fragmenstein placed']

>  <fragmenstein_mode>  (25) 
['expansion']

>  <SLURM_JOB_NAME>  (25) 
BulkDock.place:Flavi_NS5_RdRp:RdRp_knitwork_thumb_site_2_pure_split4000_batch000

>  <HIPPO Pose ID>  (25) 
38666

>  <exports>  (25) 
['/opt/xchem-fragalysis-2/maxwin/BulkDock/OUTPUTS/RdRp_knitwork_thumb_site_2_pure_split4000_batch000_211010.sdf', '/opt/xchem-fragalysis-2/maxwin/BulkDock/OUTPUTS/RdRp_knitwork_thumb_site_2_pure_fragalysis.sdf']

>  <inchikey>  (25) 
WQFINYMUCSQZFC-UHFFFAOYSA-N

>  <csv_name>  (25) 
RdRp_knitwork_thumb_site_2_pure_split4000_batch000.csv

>  <alias>  (25) 
None

>  <fragmenstein_error>  (25) 
['']

>  <SLURM_JOB_ID>  (25) 
211010

>  <original SMILES>  (25) 
CCOC(=O)Cn1nc(-c2cccnc2)ccc1=O

>  <name>  (25) 
WQFINYMUCSQZFC-UHFFFAOYSA-N

>  <ref_pdb>  (25) 
d0379a

>  <original ID>  (25) 
WQFINYMUCSQZFC-UHFFFAOYSA-N

>  <energy_score>  (25) 
-81.687098

>  <fragmenstein_outcome>  (25) 
['acceptable']

>  <HIPPO Compound ID>  (25) 
5226

>  <distance_score>  (25) 
0.985246

$$$$
38668
     RDKit          3D

 19 20  0  0  0  0  0  0  0  0999 V2000
   -2.2076  -68.7559  -21.7445 C   0  0  0  0  0  0  0  0  0  0  0  0
   -3.1876  -68.9876  -20.6131 C   0  0  0  0  0  0  0  0  0  0  0  0
   -3.8248  -70.2626  -20.7947 O   0  0  0  0  0  0  0  0  0  0  0  0
   -4.7996  -70.5075  -19.8653 C   0  0  0  0  0  0  0  0  0  0  0  0
   -5.0878  -69.7496  -18.9460 O   0  0  0  0  0  0  0  0  0  0  0  0
   -5.4464  -71.8580  -20.1117 C   0  0  0  0  0  0  0  0  0  0  0  0
   -6.8433  -71.7976  -19.6956 N   0  0  0  0  0  0  0  0  0  0  0  0
   -7.7545  -71.3488  -20.6343 N   0  0  0  0  0  0  0  0  0  0  0  0
   -8.9905  -71.2052  -20.2606 C   0  0  0  0  0  0  0  0  0  0  0  0
  -10.0201  -70.7994  -21.2573 C   0  0  0  0  0  0  0  0  0  0  0  0
   -9.8266  -71.0632  -22.6173 C   0  0  0  0  0  0  0  0  0  0  0  0
  -10.8353  -70.7641  -23.5282 C   0  0  0  0  0  0  0  0  0  0  0  0
  -12.0129  -70.2128  -23.0499 C   0  0  0  0  0  0  0  0  0  0  0  0
  -12.2300  -69.9284  -21.7483 N   0  0  0  0  0  0  0  0  0  0  0  0
  -11.2269  -70.2174  -20.8858 C   0  0  0  0  0  0  0  0  0  0  0  0
   -9.4684  -71.4839  -18.8853 C   0  0  0  0  0  0  0  0  0  0  0  0
   -8.5732  -71.9236  -18.0035 C   0  0  0  0  0  0  0  0  0  0  0  0
   -7.1656  -72.1142  -18.3868 C   0  0  0  0  0  0  0  0  0  0  0  0
   -6.3855  -72.5452  -17.5434 O   0  0  0  0  0  0  0  0  0  0  0  0
  1  2  1  0
  2  3  1  0
  3  4  1  0
  4  5  2  0
  4  6  1  0
  6  7  1  0
  7  8  1  0
  8  9  2  0
  9 10  1  0
 10 11  2  0
 11 12  1  0
 12 13  2  0
 13 14  1  0
 14 15  2  0
  9 16  1  0
 16 17  2  0
 17 18  1  0
 18 19  2  0
 18  7  1  0
 15 10  1  0
M  END
>  <ref_mols>  (26) 
d0379a,d0615a

>  <fragmenstein_runtime>  (26) 
[1.302415370941162]

>  <scratch_subdir>  (26) 
['/opt/xchem-fragalysis-2/maxwin/BulkDock/SCRATCH/211010/C5226-P50']

>  <tags>  (26) 
['Fragmenstein placed']

>  <fragmenstein_mode>  (26) 
['expansion']

>  <SLURM_JOB_NAME>  (26) 
BulkDock.place:Flavi_NS5_RdRp:RdRp_knitwork_thumb_site_2_pure_split4000_batch000

>  <HIPPO Pose ID>  (26) 
38668

>  <exports>  (26) 
['/opt/xchem-fragalysis-2/maxwin/BulkDock/OUTPUTS/RdRp_knitwork_thumb_site_2_pure_split4000_batch000_211010.sdf', '/opt/xchem-fragalysis-2/maxwin/BulkDock/OUTPUTS/RdRp_knitwork_thumb_site_2_pure_fragalysis.sdf']

>  <inchikey>  (26) 
WQFINYMUCSQZFC-UHFFFAOYSA-N

>  <csv_name>  (26) 
RdRp_knitwork_thumb_site_2_pure_split4000_batch000.csv

>  <alias>  (26) 
None

>  <fragmenstein_error>  (26) 
['']

>  <SLURM_JOB_ID>  (26) 
211010

>  <original SMILES>  (26) 
CCOC(=O)Cn1nc(-c2cccnc2)ccc1=O

>  <name>  (26) 
WQFINYMUCSQZFC-UHFFFAOYSA-N

>  <ref_pdb>  (26) 
d0615a

>  <original ID>  (26) 
WQFINYMUCSQZFC-UHFFFAOYSA-N

>  <energy_score>  (26) 
-81.803279

>  <fragmenstein_outcome>  (26) 
['acceptable']

>  <HIPPO Compound ID>  (26) 
5226

>  <distance_score>  (26) 
0.989507

$$$$
39434
     RDKit          3D

 18 19  0  0  0  0  0  0  0  0999 V2000
  -14.4726  -69.4392  -22.7933 C   0  0  0  0  0  0  0  0  0  0  0  0
  -15.0466  -69.7622  -21.4320 C   0  0  0  0  0  0  0  0  0  0  0  0
  -13.8475  -69.7743  -20.1037 S   0  0  0  0  0  0  0  0  0  0  0  0
  -13.1129  -68.5370  -20.1177 O   0  0  0  0  0  0  0  0  0  0  0  0
  -14.5208  -70.2244  -18.9008 O   0  0  0  0  0  0  0  0  0  0  0  0
  -12.8103  -71.0149  -20.4992 N   0  0  0  0  0  0  0  0  0  0  0  0
  -11.6840  -70.7294  -21.3925 C   0  0  0  0  0  0  0  0  0  0  0  0
  -10.3963  -70.8418  -20.6518 C   0  0  0  0  0  0  0  0  0  0  0  0
   -9.2415  -70.3266  -21.0234 N   0  0  0  0  0  0  0  0  0  0  0  0
   -8.3136  -70.8369  -20.1529 C   0  0  0  0  0  0  0  0  0  0  0  0
   -6.9233  -70.6868  -20.1457 C   0  0  0  0  0  0  0  0  0  0  0  0
   -6.1468  -71.4643  -19.2695 C   0  0  0  0  0  0  0  0  0  0  0  0
   -4.6505  -71.4296  -19.4296 C   0  0  0  0  0  0  0  0  0  0  0  0
   -6.7807  -72.2861  -18.3124 C   0  0  0  0  0  0  0  0  0  0  0  0
   -5.9843  -73.1927  -17.4082 C   0  0  0  0  0  0  0  0  0  0  0  0
   -8.1894  -72.3620  -18.2502 C   0  0  0  0  0  0  0  0  0  0  0  0
   -8.9147  -71.6481  -19.2026 C   0  0  0  0  0  0  0  0  0  0  0  0
  -10.2512  -71.5648  -19.4904 N   0  0  0  0  0  0  0  0  0  0  0  0
  1  2  1  0
  2  3  1  0
  3  4  2  0
  3  5  2  0
  3  6  1  0
  6  7  1  0
  7  8  1  0
  8  9  2  0
  9 10  1  0
 10 11  2  0
 11 12  1  0
 12 13  1  0
 12 14  2  0
 14 15  1  0
 14 16  1  0
 16 17  2  0
 17 18  1  0
 18  8  1  0
 17 10  1  0
M  END
>  <ref_mols>  (27) 
d0174a,d0693a

>  <fragmenstein_runtime>  (27) 
[6.329768657684326]

>  <scratch_subdir>  (27) 
['/opt/xchem-fragalysis-2/maxwin/BulkDock/SCRATCH/211010/C7644-P17']

>  <tags>  (27) 
['Fragmenstein placed']

>  <fragmenstein_mode>  (27) 
['expansion']

>  <SLURM_JOB_NAME>  (27) 
BulkDock.place:Flavi_NS5_RdRp:RdRp_knitwork_thumb_site_2_pure_split4000_batch000

>  <HIPPO Pose ID>  (27) 
39434

>  <exports>  (27) 
['/opt/xchem-fragalysis-2/maxwin/BulkDock/OUTPUTS/RdRp_knitwork_thumb_site_2_pure_split4000_batch000_211010.sdf', '/opt/xchem-fragalysis-2/maxwin/BulkDock/OUTPUTS/RdRp_knitwork_thumb_site_2_pure_fragalysis.sdf']

>  <inchikey>  (27) 
POUMTKQVGUIVIH-UHFFFAOYSA-N

>  <csv_name>  (27) 
RdRp_knitwork_thumb_site_2_pure_split4000_batch000.csv

>  <alias>  (27) 
None

>  <fragmenstein_error>  (27) 
['']

>  <SLURM_JOB_ID>  (27) 
211010

>  <original SMILES>  (27) 
CCS(=O)(=O)NCc1nc2cc(C)c(C)cc2[nH]1

>  <name>  (27) 
POUMTKQVGUIVIH-UHFFFAOYSA-N

>  <ref_pdb>  (27) 
d0174a

>  <original ID>  (27) 
POUMTKQVGUIVIH-UHFFFAOYSA-N

>  <energy_score>  (27) 
-21.693208

>  <fragmenstein_outcome>  (27) 
['acceptable']

>  <HIPPO Compound ID>  (27) 
7644

>  <distance_score>  (27) 
0.906129

$$$$
39438
     RDKit          3D

 18 19  0  0  0  0  0  0  0  0999 V2000
  -14.5088  -69.6061  -22.9060 C   0  0  0  0  0  0  0  0  0  0  0  0
  -15.0814  -69.9202  -21.5424 C   0  0  0  0  0  0  0  0  0  0  0  0
  -13.8796  -69.8538  -20.2191 S   0  0  0  0  0  0  0  0  0  0  0  0
  -13.2511  -68.5582  -20.2077 O   0  0  0  0  0  0  0  0  0  0  0  0
  -14.4927  -70.3772  -19.0151 O   0  0  0  0  0  0  0  0  0  0  0  0
  -12.7366  -70.9901  -20.6198 N   0  0  0  0  0  0  0  0  0  0  0  0
  -11.6203  -70.6013  -21.4849 C   0  0  0  0  0  0  0  0  0  0  0  0
  -10.3266  -70.8129  -20.7760 C   0  0  0  0  0  0  0  0  0  0  0  0
   -9.1316  -70.5516  -21.2644 N   0  0  0  0  0  0  0  0  0  0  0  0
   -8.2407  -71.0114  -20.3300 C   0  0  0  0  0  0  0  0  0  0  0  0
   -6.8430  -71.0389  -20.3733 C   0  0  0  0  0  0  0  0  0  0  0  0
   -6.1292  -71.6995  -19.3604 C   0  0  0  0  0  0  0  0  0  0  0  0
   -4.6365  -71.8147  -19.5143 C   0  0  0  0  0  0  0  0  0  0  0  0
   -6.8232  -72.2668  -18.2693 C   0  0  0  0  0  0  0  0  0  0  0  0
   -6.1060  -73.0909  -17.2307 C   0  0  0  0  0  0  0  0  0  0  0  0
   -8.2300  -72.1717  -18.1822 C   0  0  0  0  0  0  0  0  0  0  0  0
   -8.9000  -71.5530  -19.2366 C   0  0  0  0  0  0  0  0  0  0  0  0
  -10.2258  -71.3417  -19.5092 N   0  0  0  0  0  0  0  0  0  0  0  0
  1  2  1  0
  2  3  1  0
  3  4  2  0
  3  5  2  0
  3  6  1  0
  6  7  1  0
  7  8  1  0
  8  9  2  0
  9 10  1  0
 10 11  2  0
 11 12  1  0
 12 13  1  0
 12 14  2  0
 14 15  1  0
 14 16  1  0
 16 17  2  0
 17 18  1  0
 18  8  1  0
 17 10  1  0
M  END
>  <ref_mols>  (28) 
d0174a,d0693a

>  <fragmenstein_runtime>  (28) 
[6.192917108535767]

>  <scratch_subdir>  (28) 
['/opt/xchem-fragalysis-2/maxwin/BulkDock/SCRATCH/211010/C7644-P53']

>  <tags>  (28) 
['Fragmenstein placed']

>  <fragmenstein_mode>  (28) 
['expansion']

>  <SLURM_JOB_NAME>  (28) 
BulkDock.place:Flavi_NS5_RdRp:RdRp_knitwork_thumb_site_2_pure_split4000_batch000

>  <HIPPO Pose ID>  (28) 
39438

>  <exports>  (28) 
['/opt/xchem-fragalysis-2/maxwin/BulkDock/OUTPUTS/RdRp_knitwork_thumb_site_2_pure_split4000_batch000_211010.sdf', '/opt/xchem-fragalysis-2/maxwin/BulkDock/OUTPUTS/RdRp_knitwork_thumb_site_2_pure_fragalysis.sdf']

>  <inchikey>  (28) 
POUMTKQVGUIVIH-UHFFFAOYSA-N

>  <csv_name>  (28) 
RdRp_knitwork_thumb_site_2_pure_split4000_batch000.csv

>  <alias>  (28) 
None

>  <fragmenstein_error>  (28) 
['']

>  <SLURM_JOB_ID>  (28) 
211010

>  <original SMILES>  (28) 
CCS(=O)(=O)NCc1nc2cc(C)c(C)cc2[nH]1

>  <name>  (28) 
POUMTKQVGUIVIH-UHFFFAOYSA-N

>  <ref_pdb>  (28) 
d0693a

>  <original ID>  (28) 
POUMTKQVGUIVIH-UHFFFAOYSA-N

>  <energy_score>  (28) 
-23.849078

>  <fragmenstein_outcome>  (28) 
['acceptable']

>  <HIPPO Compound ID>  (28) 
7644

>  <distance_score>  (28) 
0.894291

$$$$
39464
     RDKit          3D

 17 18  0  0  0  0  0  0  0  0999 V2000
  -14.5215  -69.4170  -22.7872 C   0  0  0  0  0  0  0  0  0  0  0  0
  -15.0796  -69.7334  -21.4178 C   0  0  0  0  0  0  0  0  0  0  0  0
  -13.8602  -69.7723  -20.1085 S   0  0  0  0  0  0  0  0  0  0  0  0
  -13.0815  -68.5608  -20.1304 O   0  0  0  0  0  0  0  0  0  0  0  0
  -14.5149  -70.1999  -18.8874 O   0  0  0  0  0  0  0  0  0  0  0  0
  -12.8549  -71.0275  -20.5044 N   0  0  0  0  0  0  0  0  0  0  0  0
  -11.7729  -70.8094  -21.4639 C   0  0  0  0  0  0  0  0  0  0  0  0
  -10.4635  -71.0696  -20.8077 C   0  0  0  0  0  0  0  0  0  0  0  0
   -9.3243  -71.2889  -21.4283 N   0  0  0  0  0  0  0  0  0  0  0  0
   -8.3987  -71.4913  -20.4418 C   0  0  0  0  0  0  0  0  0  0  0  0
   -7.0387  -71.7830  -20.5595 C   0  0  0  0  0  0  0  0  0  0  0  0
   -6.2920  -71.9481  -19.4004 C   0  0  0  0  0  0  0  0  0  0  0  0
   -4.6081  -72.2619  -19.5503 Cl  0  0  0  0  0  0  0  0  0  0  0  0
   -6.8971  -71.8920  -18.1458 C   0  0  0  0  0  0  0  0  0  0  0  0
   -8.2644  -71.6114  -18.0045 C   0  0  0  0  0  0  0  0  0  0  0  0
   -8.9798  -71.4020  -19.1823 C   0  0  0  0  0  0  0  0  0  0  0  0
  -10.2896  -71.0950  -19.4426 N   0  0  0  0  0  0  0  0  0  0  0  0
  1  2  1  0
  2  3  1  0
  3  4  2  0
  3  5  2  0
  3  6  1  0
  6  7  1  0
  7  8  1  0
  8  9  2  0
  9 10  1  0
 10 11  2  0
 11 12  1  0
 12 13  1  0
 12 14  2  0
 14 15  1  0
 15 16  2  0
 16 17  1  0
 17  8  1  0
 16 10  1  0
M  END
>  <ref_mols>  (29) 
d0174a,d0693a

>  <fragmenstein_runtime>  (29) 
[2.9241421222686768]

>  <scratch_subdir>  (29) 
['/opt/xchem-fragalysis-2/maxwin/BulkDock/SCRATCH/211010/C7755-P17']

>  <tags>  (29) 
['Fragmenstein placed']

>  <fragmenstein_mode>  (29) 
['expansion']

>  <SLURM_JOB_NAME>  (29) 
BulkDock.place:Flavi_NS5_RdRp:RdRp_knitwork_thumb_site_2_pure_split4000_batch000

>  <HIPPO Pose ID>  (29) 
39464

>  <exports>  (29) 
['/opt/xchem-fragalysis-2/maxwin/BulkDock/OUTPUTS/RdRp_knitwork_thumb_site_2_pure_split4000_batch000_211010.sdf', '/opt/xchem-fragalysis-2/maxwin/BulkDock/OUTPUTS/RdRp_knitwork_thumb_site_2_pure_fragalysis.sdf']

>  <inchikey>  (29) 
IYFJGUVPMIFAOX-UHFFFAOYSA-N

>  <csv_name>  (29) 
RdRp_knitwork_thumb_site_2_pure_split4000_batch000.csv

>  <alias>  (29) 
None

>  <fragmenstein_error>  (29) 
['']

>  <SLURM_JOB_ID>  (29) 
211010

>  <original SMILES>  (29) 
CCS(=O)(=O)NCc1nc2cc(Cl)ccc2[nH]1

>  <name>  (29) 
IYFJGUVPMIFAOX-UHFFFAOYSA-N

>  <ref_pdb>  (29) 
d0174a

>  <original ID>  (29) 
IYFJGUVPMIFAOX-UHFFFAOYSA-N

>  <energy_score>  (29) 
-50.163985

>  <fragmenstein_outcome>  (29) 
['acceptable']

>  <HIPPO Compound ID>  (29) 
7755

>  <distance_score>  (29) 
0.986828

$$$$
39466
     RDKit          3D

 17 18  0  0  0  0  0  0  0  0999 V2000
  -14.5223  -69.6014  -22.9079 C   0  0  0  0  0  0  0  0  0  0  0  0
  -15.0893  -69.8939  -21.5374 C   0  0  0  0  0  0  0  0  0  0  0  0
  -13.8718  -69.8584  -20.2264 S   0  0  0  0  0  0  0  0  0  0  0  0
  -13.2076  -68.5802  -20.2145 O   0  0  0  0  0  0  0  0  0  0  0  0
  -14.4805  -70.3695  -19.0146 O   0  0  0  0  0  0  0  0  0  0  0  0
  -12.7576  -71.0190  -20.6383 N   0  0  0  0  0  0  0  0  0  0  0  0
  -11.6468  -70.6570  -21.5229 C   0  0  0  0  0  0  0  0  0  0  0  0
  -10.3514  -70.8511  -20.8111 C   0  0  0  0  0  0  0  0  0  0  0  0
   -9.1543  -70.7031  -21.3388 N   0  0  0  0  0  0  0  0  0  0  0  0
   -8.2669  -71.0410  -20.3519 C   0  0  0  0  0  0  0  0  0  0  0  0
   -6.8710  -71.0866  -20.3989 C   0  0  0  0  0  0  0  0  0  0  0  0
   -6.1893  -71.5662  -19.2852 C   0  0  0  0  0  0  0  0  0  0  0  0
   -4.4834  -71.7571  -19.3959 Cl  0  0  0  0  0  0  0  0  0  0  0  0
   -6.8712  -71.9441  -18.1268 C   0  0  0  0  0  0  0  0  0  0  0  0
   -8.2683  -71.8518  -18.0434 C   0  0  0  0  0  0  0  0  0  0  0  0
   -8.9320  -71.4065  -19.1865 C   0  0  0  0  0  0  0  0  0  0  0  0
  -10.2558  -71.2203  -19.4885 N   0  0  0  0  0  0  0  0  0  0  0  0
  1  2  1  0
  2  3  1  0
  3  4  2  0
  3  5  2  0
  3  6  1  0
  6  7  1  0
  7  8  1  0
  8  9  2  0
  9 10  1  0
 10 11  2  0
 11 12  1  0
 12 13  1  0
 12 14  2  0
 14 15  1  0
 15 16  2  0
 16 17  1  0
 17  8  1  0
 16 10  1  0
M  END
>  <ref_mols>  (30) 
d0174a,d0693a

>  <fragmenstein_runtime>  (30) 
[3.4103026390075684]

>  <scratch_subdir>  (30) 
['/opt/xchem-fragalysis-2/maxwin/BulkDock/SCRATCH/211010/C7755-P53']

>  <tags>  (30) 
['Fragmenstein placed']

>  <fragmenstein_mode>  (30) 
['expansion']

>  <SLURM_JOB_NAME>  (30) 
BulkDock.place:Flavi_NS5_RdRp:RdRp_knitwork_thumb_site_2_pure_split4000_batch000

>  <HIPPO Pose ID>  (30) 
39466

>  <exports>  (30) 
['/opt/xchem-fragalysis-2/maxwin/BulkDock/OUTPUTS/RdRp_knitwork_thumb_site_2_pure_split4000_batch000_211010.sdf', '/opt/xchem-fragalysis-2/maxwin/BulkDock/OUTPUTS/RdRp_knitwork_thumb_site_2_pure_fragalysis.sdf']

>  <inchikey>  (30) 
IYFJGUVPMIFAOX-UHFFFAOYSA-N

>  <csv_name>  (30) 
RdRp_knitwork_thumb_site_2_pure_split4000_batch000.csv

>  <alias>  (30) 
None

>  <fragmenstein_error>  (30) 
['']

>  <SLURM_JOB_ID>  (30) 
211010

>  <original SMILES>  (30) 
CCS(=O)(=O)NCc1nc2cc(Cl)ccc2[nH]1

>  <name>  (30) 
IYFJGUVPMIFAOX-UHFFFAOYSA-N

>  <ref_pdb>  (30) 
d0693a

>  <original ID>  (30) 
IYFJGUVPMIFAOX-UHFFFAOYSA-N

>  <energy_score>  (30) 
-48.478771

>  <fragmenstein_outcome>  (30) 
['acceptable']

>  <HIPPO Compound ID>  (30) 
7755

>  <distance_score>  (30) 
0.913523

$$$$
39469
     RDKit          3D

 18 19  0  0  0  0  0  0  0  0999 V2000
  -14.5561  -69.4702  -22.7730 C   0  0  0  0  0  0  0  0  0  0  0  0
  -15.0587  -69.7234  -21.3677 C   0  0  0  0  0  0  0  0  0  0  0  0
  -13.7669  -69.7803  -20.1319 S   0  0  0  0  0  0  0  0  0  0  0  0
  -12.9586  -68.5909  -20.2383 O   0  0  0  0  0  0  0  0  0  0  0  0
  -14.3800  -70.1601  -18.8734 O   0  0  0  0  0  0  0  0  0  0  0  0
  -12.8498  -71.0885  -20.6025 N   0  0  0  0  0  0  0  0  0  0  0  0
  -11.6795  -70.8379  -21.4527 C   0  0  0  0  0  0  0  0  0  0  0  0
  -10.4424  -70.9391  -20.6260 C   0  0  0  0  0  0  0  0  0  0  0  0
  -10.2677  -71.6748  -19.5414 N   0  0  0  0  0  0  0  0  0  0  0  0
   -8.9192  -71.6184  -19.2800 C   0  0  0  0  0  0  0  0  0  0  0  0
   -8.1537  -72.2891  -18.3196 C   0  0  0  0  0  0  0  0  0  0  0  0
   -6.7566  -72.1505  -18.3591 C   0  0  0  0  0  0  0  0  0  0  0  0
   -6.1287  -71.3352  -19.3071 C   0  0  0  0  0  0  0  0  0  0  0  0
   -4.7598  -71.3813  -19.2963 O   0  0  0  0  0  0  0  0  0  0  0  0
   -4.0875  -70.8929  -20.4541 C   0  0  0  0  0  0  0  0  0  0  0  0
   -6.8918  -70.5675  -20.1887 C   0  0  0  0  0  0  0  0  0  0  0  0
   -8.2747  -70.7760  -20.1771 C   0  0  0  0  0  0  0  0  0  0  0  0
   -9.2793  -70.2977  -20.9774 N   0  0  0  0  0  0  0  0  0  0  0  0
  1  2  1  0
  2  3  1  0
  3  4  2  0
  3  5  2  0
  3  6  1  0
  6  7  1  0
  7  8  1  0
  8  9  2  0
  9 10  1  0
 10 11  2  0
 11 12  1  0
 12 13  2  0
 13 14  1  0
 14 15  1  0
 13 16  1  0
 16 17  2  0
 17 18  1  0
 18  8  1  0
 17 10  1  0
M  END
>  <ref_mols>  (31) 
d0174a,d0693a

>  <fragmenstein_runtime>  (31) 
[3.9052271842956543]

>  <scratch_subdir>  (31) 
['/opt/xchem-fragalysis-2/maxwin/BulkDock/SCRATCH/211010/C7768-P17']

>  <tags>  (31) 
['Fragmenstein placed']

>  <fragmenstein_mode>  (31) 
['expansion']

>  <SLURM_JOB_NAME>  (31) 
BulkDock.place:Flavi_NS5_RdRp:RdRp_knitwork_thumb_site_2_pure_split4000_batch000

>  <HIPPO Pose ID>  (31) 
39469

>  <exports>  (31) 
['/opt/xchem-fragalysis-2/maxwin/BulkDock/OUTPUTS/RdRp_knitwork_thumb_site_2_pure_split4000_batch000_211010.sdf', '/opt/xchem-fragalysis-2/maxwin/BulkDock/OUTPUTS/RdRp_knitwork_thumb_site_2_pure_fragalysis.sdf']

>  <inchikey>  (31) 
YOYOWZILRANCQF-UHFFFAOYSA-N

>  <csv_name>  (31) 
RdRp_knitwork_thumb_site_2_pure_split4000_batch000.csv

>  <alias>  (31) 
None

>  <fragmenstein_error>  (31) 
['']

>  <SLURM_JOB_ID>  (31) 
211010

>  <original SMILES>  (31) 
CCS(=O)(=O)NCc1nc2ccc(OC)cc2[nH]1

>  <name>  (31) 
YOYOWZILRANCQF-UHFFFAOYSA-N

>  <ref_pdb>  (31) 
d0174a

>  <original ID>  (31) 
YOYOWZILRANCQF-UHFFFAOYSA-N

>  <energy_score>  (31) 
-31.429159

>  <fragmenstein_outcome>  (31) 
['acceptable']

>  <HIPPO Compound ID>  (31) 
7768

>  <distance_score>  (31) 
0.96147

$$$$
39473
     RDKit          3D

 18 19  0  0  0  0  0  0  0  0999 V2000
  -14.6023  -69.6393  -22.8810 C   0  0  0  0  0  0  0  0  0  0  0  0
  -15.1078  -69.8585  -21.4713 C   0  0  0  0  0  0  0  0  0  0  0  0
  -13.8086  -69.8576  -20.2425 S   0  0  0  0  0  0  0  0  0  0  0  0
  -13.0540  -68.6322  -20.3438 O   0  0  0  0  0  0  0  0  0  0  0  0
  -14.3865  -70.2661  -18.9776 O   0  0  0  0  0  0  0  0  0  0  0  0
  -12.8338  -71.1264  -20.7000 N   0  0  0  0  0  0  0  0  0  0  0  0
  -11.6645  -70.8317  -21.5327 C   0  0  0  0  0  0  0  0  0  0  0  0
  -10.4279  -70.9656  -20.7084 C   0  0  0  0  0  0  0  0  0  0  0  0
  -10.2893  -71.5845  -19.5475 N   0  0  0  0  0  0  0  0  0  0  0  0
   -8.9342  -71.5912  -19.2999 C   0  0  0  0  0  0  0  0  0  0  0  0
   -8.2007  -72.1723  -18.2584 C   0  0  0  0  0  0  0  0  0  0  0  0
   -6.7962  -72.1218  -18.3130 C   0  0  0  0  0  0  0  0  0  0  0  0
   -6.1249  -71.4903  -19.3663 C   0  0  0  0  0  0  0  0  0  0  0  0
   -4.7599  -71.5987  -19.3402 O   0  0  0  0  0  0  0  0  0  0  0  0
   -4.0358  -71.0635  -20.4459 C   0  0  0  0  0  0  0  0  0  0  0  0
   -6.8490  -70.8420  -20.3660 C   0  0  0  0  0  0  0  0  0  0  0  0
   -8.2436  -70.9330  -20.3095 C   0  0  0  0  0  0  0  0  0  0  0  0
   -9.2232  -70.4828  -21.1534 N   0  0  0  0  0  0  0  0  0  0  0  0
  1  2  1  0
  2  3  1  0
  3  4  2  0
  3  5  2  0
  3  6  1  0
  6  7  1  0
  7  8  1  0
  8  9  2  0
  9 10  1  0
 10 11  2  0
 11 12  1  0
 12 13  2  0
 13 14  1  0
 14 15  1  0
 13 16  1  0
 16 17  2  0
 17 18  1  0
 18  8  1  0
 17 10  1  0
M  END
>  <ref_mols>  (32) 
d0174a,d0693a

>  <fragmenstein_runtime>  (32) 
[3.987558126449585]

>  <scratch_subdir>  (32) 
['/opt/xchem-fragalysis-2/maxwin/BulkDock/SCRATCH/211010/C7768-P53']

>  <tags>  (32) 
['Fragmenstein placed']

>  <fragmenstein_mode>  (32) 
['expansion']

>  <SLURM_JOB_NAME>  (32) 
BulkDock.place:Flavi_NS5_RdRp:RdRp_knitwork_thumb_site_2_pure_split4000_batch000

>  <HIPPO Pose ID>  (32) 
39473

>  <exports>  (32) 
['/opt/xchem-fragalysis-2/maxwin/BulkDock/OUTPUTS/RdRp_knitwork_thumb_site_2_pure_split4000_batch000_211010.sdf', '/opt/xchem-fragalysis-2/maxwin/BulkDock/OUTPUTS/RdRp_knitwork_thumb_site_2_pure_fragalysis.sdf']

>  <inchikey>  (32) 
YOYOWZILRANCQF-UHFFFAOYSA-N

>  <csv_name>  (32) 
RdRp_knitwork_thumb_site_2_pure_split4000_batch000.csv

>  <alias>  (32) 
None

>  <fragmenstein_error>  (32) 
['']

>  <SLURM_JOB_ID>  (32) 
211010

>  <original SMILES>  (32) 
CCS(=O)(=O)NCc1nc2ccc(OC)cc2[nH]1

>  <name>  (32) 
YOYOWZILRANCQF-UHFFFAOYSA-N

>  <ref_pdb>  (32) 
d0693a

>  <original ID>  (32) 
YOYOWZILRANCQF-UHFFFAOYSA-N

>  <energy_score>  (32) 
-31.534703

>  <fragmenstein_outcome>  (32) 
['acceptable']

>  <HIPPO Compound ID>  (32) 
7768

>  <distance_score>  (32) 
0.968335

$$$$
40166
     RDKit          3D

 18 19  0  0  0  0  0  0  0  0999 V2000
  -11.2447  -68.8501  -27.9112 C   0  0  0  0  0  0  0  0  0  0  0  0
  -11.1144  -69.8125  -26.7890 C   0  0  0  0  0  0  0  0  0  0  0  0
  -10.1923  -70.8199  -26.5999 C   0  0  0  0  0  0  0  0  0  0  0  0
  -10.3017  -71.5198  -25.4141 N   0  0  0  0  0  0  0  0  0  0  0  0
  -11.3127  -71.0445  -24.7159 C   0  0  0  0  0  0  0  0  0  0  0  0
  -11.6962  -71.5630  -23.3596 C   0  0  0  0  0  0  0  0  0  0  0  0
  -11.7143  -70.3967  -22.3006 C   0  0  0  0  0  0  0  0  0  0  0  0
  -11.9927  -70.4215  -21.0879 O   0  0  0  0  0  0  0  0  0  0  0  0
  -10.1398  -70.6732  -22.2598 N   0  0  0  0  0  0  0  0  0  0  0  0
   -9.3565  -69.9350  -21.2887 C   0  0  0  0  0  0  0  0  0  0  0  0
   -8.6906  -70.8232  -20.2567 C   0  0  0  0  0  0  0  0  0  0  0  0
   -9.4814  -71.1645  -19.0514 C   0  0  0  0  0  0  0  0  0  0  0  0
   -8.8506  -71.8136  -18.0723 C   0  0  0  0  0  0  0  0  0  0  0  0
   -7.4322  -72.1838  -18.2286 C   0  0  0  0  0  0  0  0  0  0  0  0
   -6.8216  -72.6995  -17.3006 O   0  0  0  0  0  0  0  0  0  0  0  0
   -6.8709  -71.9117  -19.4490 N   0  0  0  0  0  0  0  0  0  0  0  0
   -7.4636  -71.2026  -20.4557 N   0  0  0  0  0  0  0  0  0  0  0  0
  -12.1953  -69.7720  -25.4623 S   0  0  0  0  0  0  0  0  0  0  0  0
  1  2  1  0
  2  3  2  0
  3  4  1  0
  4  5  2  0
  5  6  1  0
  6  7  1  0
  7  8  2  0
  7  9  1  0
  9 10  1  0
 10 11  1  0
 11 12  1  0
 12 13  2  0
 13 14  1  0
 14 15  2  0
 14 16  1  0
 16 17  1  0
  5 18  1  0
 18  2  1  0
 17 11  2  0
M  END
>  <ref_mols>  (33) 
d0379a,d0615a

>  <fragmenstein_runtime>  (33) 
[1.4744908809661865]

>  <scratch_subdir>  (33) 
['/opt/xchem-fragalysis-2/maxwin/BulkDock/SCRATCH/211010/C1569-P35']

>  <tags>  (33) 
['Fragmenstein placed']

>  <fragmenstein_mode>  (33) 
['expansion']

>  <SLURM_JOB_NAME>  (33) 
BulkDock.place:Flavi_NS5_RdRp:RdRp_knitwork_thumb_site_2_pure_split4000_batch000

>  <HIPPO Pose ID>  (33) 
40166

>  <exports>  (33) 
['/opt/xchem-fragalysis-2/maxwin/BulkDock/OUTPUTS/RdRp_knitwork_thumb_site_2_pure_split4000_batch000_211010.sdf', '/opt/xchem-fragalysis-2/maxwin/BulkDock/OUTPUTS/RdRp_knitwork_thumb_site_2_pure_fragalysis.sdf']

>  <inchikey>  (33) 
CZGWIYIRARQRDB-UHFFFAOYSA-N

>  <csv_name>  (33) 
RdRp_knitwork_thumb_site_2_pure_split4000_batch000.csv

>  <alias>  (33) 
None

>  <fragmenstein_error>  (33) 
['']

>  <SLURM_JOB_ID>  (33) 
211010

>  <original SMILES>  (33) 
Cc1cnc(CC(=O)NCc2ccc(=O)[nH]n2)s1

>  <name>  (33) 
CZGWIYIRARQRDB-UHFFFAOYSA-N

>  <ref_pdb>  (33) 
d0379a

>  <original ID>  (33) 
CZGWIYIRARQRDB-UHFFFAOYSA-N

>  <energy_score>  (33) 
-37.924381

>  <fragmenstein_outcome>  (33) 
['acceptable']

>  <HIPPO Compound ID>  (33) 
1569

>  <distance_score>  (33) 
0.787786

$$$$
40169
     RDKit          3D

 18 19  0  0  0  0  0  0  0  0999 V2000
  -11.1939  -68.8238  -27.9463 C   0  0  0  0  0  0  0  0  0  0  0  0
  -11.0581  -69.7709  -26.8119 C   0  0  0  0  0  0  0  0  0  0  0  0
  -10.0627  -70.6888  -26.5499 C   0  0  0  0  0  0  0  0  0  0  0  0
  -10.1997  -71.4060  -25.3775 N   0  0  0  0  0  0  0  0  0  0  0  0
  -11.2922  -71.0152  -24.7528 C   0  0  0  0  0  0  0  0  0  0  0  0
  -11.6965  -71.5329  -23.4021 C   0  0  0  0  0  0  0  0  0  0  0  0
  -11.6328  -70.3713  -22.3364 C   0  0  0  0  0  0  0  0  0  0  0  0
  -11.8727  -70.3918  -21.1153 O   0  0  0  0  0  0  0  0  0  0  0  0
  -10.0680  -70.7122  -22.3472 N   0  0  0  0  0  0  0  0  0  0  0  0
   -9.2067  -69.9893  -21.4316 C   0  0  0  0  0  0  0  0  0  0  0  0
   -8.5955  -70.8675  -20.3558 C   0  0  0  0  0  0  0  0  0  0  0  0
   -9.4156  -71.1276  -19.1485 C   0  0  0  0  0  0  0  0  0  0  0  0
   -8.8352  -71.7834  -18.1434 C   0  0  0  0  0  0  0  0  0  0  0  0
   -7.4384  -72.2355  -18.2691 C   0  0  0  0  0  0  0  0  0  0  0  0
   -6.8772  -72.7759  -17.3236 O   0  0  0  0  0  0  0  0  0  0  0  0
   -6.8408  -72.0124  -19.4822 N   0  0  0  0  0  0  0  0  0  0  0  0
   -7.3847  -71.3098  -20.5207 N   0  0  0  0  0  0  0  0  0  0  0  0
  -12.2289  -69.8238  -25.5633 S   0  0  0  0  0  0  0  0  0  0  0  0
  1  2  1  0
  2  3  2  0
  3  4  1  0
  4  5  2  0
  5  6  1  0
  6  7  1  0
  7  8  2  0
  7  9  1  0
  9 10  1  0
 10 11  1  0
 11 12  1  0
 12 13  2  0
 13 14  1  0
 14 15  2  0
 14 16  1  0
 16 17  1  0
  5 18  1  0
 18  2  1  0
 17 11  2  0
M  END
>  <ref_mols>  (34) 
d0379a,d0615a

>  <fragmenstein_runtime>  (34) 
[1.5086815357208252]

>  <scratch_subdir>  (34) 
['/opt/xchem-fragalysis-2/maxwin/BulkDock/SCRATCH/211010/C1569-P50']

>  <tags>  (34) 
['Fragmenstein placed']

>  <fragmenstein_mode>  (34) 
['expansion']

>  <SLURM_JOB_NAME>  (34) 
BulkDock.place:Flavi_NS5_RdRp:RdRp_knitwork_thumb_site_2_pure_split4000_batch000

>  <HIPPO Pose ID>  (34) 
40169

>  <exports>  (34) 
['/opt/xchem-fragalysis-2/maxwin/BulkDock/OUTPUTS/RdRp_knitwork_thumb_site_2_pure_split4000_batch000_211010.sdf', '/opt/xchem-fragalysis-2/maxwin/BulkDock/OUTPUTS/RdRp_knitwork_thumb_site_2_pure_fragalysis.sdf']

>  <inchikey>  (34) 
CZGWIYIRARQRDB-UHFFFAOYSA-N

>  <csv_name>  (34) 
RdRp_knitwork_thumb_site_2_pure_split4000_batch000.csv

>  <alias>  (34) 
None

>  <fragmenstein_error>  (34) 
['']

>  <SLURM_JOB_ID>  (34) 
211010

>  <original SMILES>  (34) 
Cc1cnc(CC(=O)NCc2ccc(=O)[nH]n2)s1

>  <name>  (34) 
CZGWIYIRARQRDB-UHFFFAOYSA-N

>  <ref_pdb>  (34) 
d0615a

>  <original ID>  (34) 
CZGWIYIRARQRDB-UHFFFAOYSA-N

>  <energy_score>  (34) 
-38.105815

>  <fragmenstein_outcome>  (34) 
['acceptable']

>  <HIPPO Compound ID>  (34) 
1569

>  <distance_score>  (34) 
0.753048

$$$$
40314
     RDKit          3D

 15 16  0  0  0  0  0  0  0  0999 V2000
  -14.0577  -68.8696  -19.8959 O   0  0  0  0  0  0  0  0  0  0  0  0
  -13.6610  -69.0718  -21.0370 C   0  0  0  0  0  0  0  0  0  0  0  0
  -14.4058  -68.6834  -22.0949 O   0  0  0  0  0  0  0  0  0  0  0  0
  -12.3831  -69.6915  -21.3932 C   0  0  0  0  0  0  0  0  0  0  0  0
  -11.9826  -70.0316  -22.6741 C   0  0  0  0  0  0  0  0  0  0  0  0
  -10.3843  -70.6608  -22.6592 S   0  0  0  0  0  0  0  0  0  0  0  0
  -10.3345  -70.4786  -20.9600 C   0  0  0  0  0  0  0  0  0  0  0  0
   -9.2168  -70.9265  -20.1397 C   0  0  0  0  0  0  0  0  0  0  0  0
   -9.5072  -71.0608  -18.6841 C   0  0  0  0  0  0  0  0  0  0  0  0
   -8.5601  -71.5685  -17.8967 C   0  0  0  0  0  0  0  0  0  0  0  0
   -7.2499  -71.9258  -18.4611 C   0  0  0  0  0  0  0  0  0  0  0  0
   -6.3828  -72.3972  -17.7367 O   0  0  0  0  0  0  0  0  0  0  0  0
   -7.0862  -71.6778  -19.8000 N   0  0  0  0  0  0  0  0  0  0  0  0
   -8.0550  -71.2134  -20.6557 N   0  0  0  0  0  0  0  0  0  0  0  0
  -11.4243  -69.9683  -20.4193 N   0  0  0  0  0  0  0  0  0  0  0  0
  1  2  2  0
  2  3  1  0
  2  4  1  0
  4  5  2  0
  5  6  1  0
  6  7  1  0
  7  8  1  0
  8  9  1  0
  9 10  2  0
 10 11  1  0
 11 12  2  0
 11 13  1  0
 13 14  1  0
  7 15  2  0
 15  4  1  0
 14  8  2  0
M  END
>  <ref_mols>  (35) 
d0379a,d0615a

>  <fragmenstein_runtime>  (35) 
[0.9768812656402588]

>  <scratch_subdir>  (35) 
['/opt/xchem-fragalysis-2/maxwin/BulkDock/SCRATCH/211010/C1778-P35']

>  <tags>  (35) 
['Fragmenstein placed']

>  <fragmenstein_mode>  (35) 
['expansion']

>  <SLURM_JOB_NAME>  (35) 
BulkDock.place:Flavi_NS5_RdRp:RdRp_knitwork_thumb_site_2_pure_split4000_batch000

>  <HIPPO Pose ID>  (35) 
40314

>  <exports>  (35) 
['/opt/xchem-fragalysis-2/maxwin/BulkDock/OUTPUTS/RdRp_knitwork_thumb_site_2_pure_split4000_batch000_211010.sdf', '/opt/xchem-fragalysis-2/maxwin/BulkDock/OUTPUTS/RdRp_knitwork_thumb_site_2_pure_fragalysis.sdf']

>  <inchikey>  (35) 
ZWWLQMAPQZXPRQ-UHFFFAOYSA-N

>  <csv_name>  (35) 
RdRp_knitwork_thumb_site_2_pure_split4000_batch000.csv

>  <alias>  (35) 
None

>  <fragmenstein_error>  (35) 
['']

>  <SLURM_JOB_ID>  (35) 
211010

>  <original SMILES>  (35) 
O=C(O)c1csc(-c2ccc(=O)[nH]n2)n1

>  <name>  (35) 
ZWWLQMAPQZXPRQ-UHFFFAOYSA-N

>  <ref_pdb>  (35) 
d0379a

>  <original ID>  (35) 
ZWWLQMAPQZXPRQ-UHFFFAOYSA-N

>  <energy_score>  (35) 
-79.575035

>  <fragmenstein_outcome>  (35) 
['acceptable']

>  <HIPPO Compound ID>  (35) 
1778

>  <distance_score>  (35) 
0.655745

$$$$
40318
     RDKit          3D

 15 16  0  0  0  0  0  0  0  0999 V2000
  -14.0325  -68.9881  -20.0880 O   0  0  0  0  0  0  0  0  0  0  0  0
  -13.6244  -69.2449  -21.2137 C   0  0  0  0  0  0  0  0  0  0  0  0
  -14.3755  -68.9459  -22.2961 O   0  0  0  0  0  0  0  0  0  0  0  0
  -12.3260  -69.8438  -21.5270 C   0  0  0  0  0  0  0  0  0  0  0  0
  -11.8882  -70.1973  -22.7919 C   0  0  0  0  0  0  0  0  0  0  0  0
  -10.2700  -70.7714  -22.7325 S   0  0  0  0  0  0  0  0  0  0  0  0
  -10.2684  -70.5687  -21.0340 C   0  0  0  0  0  0  0  0  0  0  0  0
   -9.1612  -70.9844  -20.1832 C   0  0  0  0  0  0  0  0  0  0  0  0
   -9.4715  -71.0763  -18.7285 C   0  0  0  0  0  0  0  0  0  0  0  0
   -8.5406  -71.5776  -17.9181 C   0  0  0  0  0  0  0  0  0  0  0  0
   -7.2296  -71.9689  -18.4578 C   0  0  0  0  0  0  0  0  0  0  0  0
   -6.3882  -72.4624  -17.7178 O   0  0  0  0  0  0  0  0  0  0  0  0
   -7.0384  -71.7330  -19.7951 N   0  0  0  0  0  0  0  0  0  0  0  0
   -7.9927  -71.2855  -20.6753 N   0  0  0  0  0  0  0  0  0  0  0  0
  -11.3839  -70.0796  -20.5262 N   0  0  0  0  0  0  0  0  0  0  0  0
  1  2  2  0
  2  3  1  0
  2  4  1  0
  4  5  2  0
  5  6  1  0
  6  7  1  0
  7  8  1  0
  8  9  1  0
  9 10  2  0
 10 11  1  0
 11 12  2  0
 11 13  1  0
 13 14  1  0
  7 15  2  0
 15  4  1  0
 14  8  2  0
M  END
>  <ref_mols>  (36) 
d0379a,d0615a

>  <fragmenstein_runtime>  (36) 
[0.9024758338928223]

>  <scratch_subdir>  (36) 
['/opt/xchem-fragalysis-2/maxwin/BulkDock/SCRATCH/211010/C1778-P50']

>  <tags>  (36) 
['Fragmenstein placed']

>  <fragmenstein_mode>  (36) 
['expansion']

>  <SLURM_JOB_NAME>  (36) 
BulkDock.place:Flavi_NS5_RdRp:RdRp_knitwork_thumb_site_2_pure_split4000_batch000

>  <HIPPO Pose ID>  (36) 
40318

>  <exports>  (36) 
['/opt/xchem-fragalysis-2/maxwin/BulkDock/OUTPUTS/RdRp_knitwork_thumb_site_2_pure_split4000_batch000_211010.sdf', '/opt/xchem-fragalysis-2/maxwin/BulkDock/OUTPUTS/RdRp_knitwork_thumb_site_2_pure_fragalysis.sdf']

>  <inchikey>  (36) 
ZWWLQMAPQZXPRQ-UHFFFAOYSA-N

>  <csv_name>  (36) 
RdRp_knitwork_thumb_site_2_pure_split4000_batch000.csv

>  <alias>  (36) 
None

>  <fragmenstein_error>  (36) 
['']

>  <SLURM_JOB_ID>  (36) 
211010

>  <original SMILES>  (36) 
O=C(O)c1csc(-c2ccc(=O)[nH]n2)n1

>  <name>  (36) 
ZWWLQMAPQZXPRQ-UHFFFAOYSA-N

>  <ref_pdb>  (36) 
d0615a

>  <original ID>  (36) 
ZWWLQMAPQZXPRQ-UHFFFAOYSA-N

>  <energy_score>  (36) 
-79.693862

>  <fragmenstein_outcome>  (36) 
['acceptable']

>  <HIPPO Compound ID>  (36) 
1778

>  <distance_score>  (36) 
0.62388

$$$$
40382
     RDKit          3D

 14 15  0  0  0  0  0  0  0  0999 V2000
  -13.8702  -69.3781  -19.5789 N   0  0  0  0  0  0  0  0  0  0  0  0
  -13.7292  -69.2955  -21.0391 C   0  0  0  0  0  0  0  0  0  0  0  0
  -12.3759  -69.8133  -21.4422 C   0  0  0  0  0  0  0  0  0  0  0  0
  -11.9546  -70.1235  -22.7213 C   0  0  0  0  0  0  0  0  0  0  0  0
  -10.3252  -70.6666  -22.6966 S   0  0  0  0  0  0  0  0  0  0  0  0
  -10.2932  -70.4826  -20.9973 C   0  0  0  0  0  0  0  0  0  0  0  0
   -9.1764  -70.9095  -20.1652 C   0  0  0  0  0  0  0  0  0  0  0  0
   -9.4793  -71.0374  -18.7107 C   0  0  0  0  0  0  0  0  0  0  0  0
   -8.5416  -71.5462  -17.9131 C   0  0  0  0  0  0  0  0  0  0  0  0
   -7.2265  -71.9053  -18.4640 C   0  0  0  0  0  0  0  0  0  0  0  0
   -6.3691  -72.3794  -17.7297 O   0  0  0  0  0  0  0  0  0  0  0  0
   -7.0470  -71.6542  -19.8001 N   0  0  0  0  0  0  0  0  0  0  0  0
   -8.0083  -71.1956  -20.6675 N   0  0  0  0  0  0  0  0  0  0  0  0
  -11.4046  -70.0108  -20.4648 N   0  0  0  0  0  0  0  0  0  0  0  0
  1  2  1  0
  2  3  1  0
  3  4  2  0
  4  5  1  0
  5  6  1  0
  6  7  1  0
  7  8  1  0
  8  9  2  0
  9 10  1  0
 10 11  2  0
 10 12  1  0
 12 13  1  0
  6 14  2  0
 14  3  1  0
 13  7  2  0
M  END
>  <ref_mols>  (37) 
d0379a,d0615a

>  <fragmenstein_runtime>  (37) 
[0.9256699085235596]

>  <scratch_subdir>  (37) 
['/opt/xchem-fragalysis-2/maxwin/BulkDock/SCRATCH/211010/C1905-P35']

>  <tags>  (37) 
['Fragmenstein placed']

>  <fragmenstein_mode>  (37) 
['expansion']

>  <SLURM_JOB_NAME>  (37) 
BulkDock.place:Flavi_NS5_RdRp:RdRp_knitwork_thumb_site_2_pure_split4000_batch000

>  <HIPPO Pose ID>  (37) 
40382

>  <exports>  (37) 
['/opt/xchem-fragalysis-2/maxwin/BulkDock/OUTPUTS/RdRp_knitwork_thumb_site_2_pure_split4000_batch000_211010.sdf', '/opt/xchem-fragalysis-2/maxwin/BulkDock/OUTPUTS/RdRp_knitwork_thumb_site_2_pure_fragalysis.sdf']

>  <inchikey>  (37) 
ACHLSFBFHYJWMS-UHFFFAOYSA-N

>  <csv_name>  (37) 
RdRp_knitwork_thumb_site_2_pure_split4000_batch000.csv

>  <alias>  (37) 
None

>  <fragmenstein_error>  (37) 
['']

>  <SLURM_JOB_ID>  (37) 
211010

>  <original SMILES>  (37) 
NCc1csc(-c2ccc(=O)[nH]n2)n1

>  <name>  (37) 
ACHLSFBFHYJWMS-UHFFFAOYSA-N

>  <ref_pdb>  (37) 
d0379a

>  <original ID>  (37) 
ACHLSFBFHYJWMS-UHFFFAOYSA-N

>  <energy_score>  (37) 
-80.655282

>  <fragmenstein_outcome>  (37) 
['acceptable']

>  <HIPPO Compound ID>  (37) 
1905

>  <distance_score>  (37) 
0.918009

$$$$
40384
     RDKit          3D

 14 15  0  0  0  0  0  0  0  0999 V2000
  -13.8122  -69.4917  -19.6329 N   0  0  0  0  0  0  0  0  0  0  0  0
  -13.6856  -69.4589  -21.0973 C   0  0  0  0  0  0  0  0  0  0  0  0
  -12.3214  -69.9547  -21.4924 C   0  0  0  0  0  0  0  0  0  0  0  0
  -11.8826  -70.2553  -22.7681 C   0  0  0  0  0  0  0  0  0  0  0  0
  -10.2351  -70.7473  -22.7327 S   0  0  0  0  0  0  0  0  0  0  0  0
  -10.2261  -70.5707  -21.0317 C   0  0  0  0  0  0  0  0  0  0  0  0
   -9.1097  -70.9751  -20.1885 C   0  0  0  0  0  0  0  0  0  0  0  0
   -9.4173  -71.0777  -18.7329 C   0  0  0  0  0  0  0  0  0  0  0  0
   -8.4855  -71.5828  -17.9264 C   0  0  0  0  0  0  0  0  0  0  0  0
   -7.1737  -71.9641  -18.4699 C   0  0  0  0  0  0  0  0  0  0  0  0
   -6.3316  -72.4607  -17.7326 O   0  0  0  0  0  0  0  0  0  0  0  0
   -6.9826  -71.7146  -19.8047 N   0  0  0  0  0  0  0  0  0  0  0  0
   -7.9397  -71.2670  -20.6825 N   0  0  0  0  0  0  0  0  0  0  0  0
  -11.3536  -70.1283  -20.5079 N   0  0  0  0  0  0  0  0  0  0  0  0
  1  2  1  0
  2  3  1  0
  3  4  2  0
  4  5  1  0
  5  6  1  0
  6  7  1  0
  7  8  1  0
  8  9  2  0
  9 10  1  0
 10 11  2  0
 10 12  1  0
 12 13  1  0
  6 14  2  0
 14  3  1  0
 13  7  2  0
M  END
>  <ref_mols>  (38) 
d0379a,d0615a

>  <fragmenstein_runtime>  (38) 
[0.9554290771484375]

>  <scratch_subdir>  (38) 
['/opt/xchem-fragalysis-2/maxwin/BulkDock/SCRATCH/211010/C1905-P50']

>  <tags>  (38) 
['Fragmenstein placed']

>  <fragmenstein_mode>  (38) 
['expansion']

>  <SLURM_JOB_NAME>  (38) 
BulkDock.place:Flavi_NS5_RdRp:RdRp_knitwork_thumb_site_2_pure_split4000_batch000

>  <HIPPO Pose ID>  (38) 
40384

>  <exports>  (38) 
['/opt/xchem-fragalysis-2/maxwin/BulkDock/OUTPUTS/RdRp_knitwork_thumb_site_2_pure_split4000_batch000_211010.sdf', '/opt/xchem-fragalysis-2/maxwin/BulkDock/OUTPUTS/RdRp_knitwork_thumb_site_2_pure_fragalysis.sdf']

>  <inchikey>  (38) 
ACHLSFBFHYJWMS-UHFFFAOYSA-N

>  <csv_name>  (38) 
RdRp_knitwork_thumb_site_2_pure_split4000_batch000.csv

>  <alias>  (38) 
None

>  <fragmenstein_error>  (38) 
['']

>  <SLURM_JOB_ID>  (38) 
211010

>  <original SMILES>  (38) 
NCc1csc(-c2ccc(=O)[nH]n2)n1

>  <name>  (38) 
ACHLSFBFHYJWMS-UHFFFAOYSA-N

>  <ref_pdb>  (38) 
d0615a

>  <original ID>  (38) 
ACHLSFBFHYJWMS-UHFFFAOYSA-N

>  <energy_score>  (38) 
-80.522846

>  <fragmenstein_outcome>  (38) 
['acceptable']

>  <HIPPO Compound ID>  (38) 
1905

>  <distance_score>  (38) 
0.91452

$$$$
41842
     RDKit          3D

 19 20  0  0  0  0  0  0  0  0999 V2000
  -14.6320  -69.4283  -23.1527 C   0  0  0  0  0  0  0  0  0  0  0  0
  -14.2442  -70.8595  -22.7099 C   0  0  0  0  0  0  0  0  0  0  0  0
  -15.3983  -71.3797  -21.8388 C   0  0  0  0  0  0  0  0  0  0  0  0
  -14.1053  -71.8049  -23.9342 C   0  0  0  0  0  0  0  0  0  0  0  0
  -13.1713  -71.3567  -24.9044 O   0  0  0  0  0  0  0  0  0  0  0  0
  -13.0069  -70.9022  -21.8630 N   0  0  0  0  0  0  0  0  0  0  0  0
  -11.9572  -69.8597  -22.0187 C   0  0  0  0  0  0  0  0  0  0  0  0
  -11.8285  -69.8831  -23.2617 O   0  0  0  0  0  0  0  0  0  0  0  0
  -11.2271  -70.6554  -20.9928 C   0  0  0  0  0  0  0  0  0  0  0  0
  -11.2146  -70.5302  -19.6113 C   0  0  0  0  0  0  0  0  0  0  0  0
  -10.0291  -70.9123  -18.9829 N   0  0  0  0  0  0  0  0  0  0  0  0
   -9.1574  -71.2613  -19.9073 C   0  0  0  0  0  0  0  0  0  0  0  0
   -7.7285  -71.1982  -19.7691 C   0  0  0  0  0  0  0  0  0  0  0  0
   -6.9382  -70.2648  -20.4208 C   0  0  0  0  0  0  0  0  0  0  0  0
   -5.5510  -70.5309  -20.2963 C   0  0  0  0  0  0  0  0  0  0  0  0
   -5.3433  -71.6511  -19.5445 C   0  0  0  0  0  0  0  0  0  0  0  0
   -3.8237  -72.3928  -19.2821 Cl  0  0  0  0  0  0  0  0  0  0  0  0
   -6.7649  -72.2908  -18.8808 S   0  0  0  0  0  0  0  0  0  0  0  0
   -9.8071  -71.4857  -21.4883 S   0  0  0  0  0  0  0  0  0  0  0  0
  1  2  1  0
  2  3  1  0
  2  4  1  0
  4  5  1  0
  2  6  1  0
  6  7  1  0
  7  8  2  0
  7  9  1  0
  9 10  2  0
 10 11  1  0
 11 12  2  0
 12 13  1  0
 13 14  2  0
 14 15  1  0
 15 16  2  0
 16 17  1  0
 16 18  1  0
 12 19  1  0
 19  9  1  0
 18 13  1  0
M  END
>  <ref_mols>  (39) 
d0248a,d0376a,d0615a

>  <fragmenstein_runtime>  (39) 
[2.4309237003326416]

>  <scratch_subdir>  (39) 
['/opt/xchem-fragalysis-2/maxwin/BulkDock/SCRATCH/211010/C1226-P22']

>  <tags>  (39) 
['Fragmenstein placed']

>  <fragmenstein_mode>  (39) 
['expansion']

>  <SLURM_JOB_NAME>  (39) 
BulkDock.place:Flavi_NS5_RdRp:RdRp_knitwork_thumb_site_2_pure_split4000_batch000

>  <HIPPO Pose ID>  (39) 
41842

>  <exports>  (39) 
['/opt/xchem-fragalysis-2/maxwin/BulkDock/OUTPUTS/RdRp_knitwork_thumb_site_2_pure_split4000_batch000_211010.sdf', '/opt/xchem-fragalysis-2/maxwin/BulkDock/OUTPUTS/RdRp_knitwork_thumb_site_2_pure_fragalysis.sdf']

>  <inchikey>  (39) 
LGAJFWJWFLCBPR-UHFFFAOYSA-N

>  <csv_name>  (39) 
RdRp_knitwork_thumb_site_2_pure_split4000_batch000.csv

>  <alias>  (39) 
None

>  <fragmenstein_error>  (39) 
['']

>  <SLURM_JOB_ID>  (39) 
211010

>  <original SMILES>  (39) 
CC(C)(CO)NC(=O)c1cnc(-c2ccc(Cl)s2)s1

>  <name>  (39) 
LGAJFWJWFLCBPR-UHFFFAOYSA-N

>  <ref_pdb>  (39) 
d0248a

>  <original ID>  (39) 
LGAJFWJWFLCBPR-UHFFFAOYSA-N

>  <energy_score>  (39) 
-36.203454

>  <fragmenstein_outcome>  (39) 
['acceptable']

>  <HIPPO Compound ID>  (39) 
1226

>  <distance_score>  (39) 
0.90489

$$$$
41844
     RDKit          3D

 19 20  0  0  0  0  0  0  0  0999 V2000
  -14.6871  -69.3197  -23.1602 C   0  0  0  0  0  0  0  0  0  0  0  0
  -14.2490  -70.7315  -22.7145 C   0  0  0  0  0  0  0  0  0  0  0  0
  -15.3758  -71.2813  -21.8293 C   0  0  0  0  0  0  0  0  0  0  0  0
  -14.0929  -71.6751  -23.9362 C   0  0  0  0  0  0  0  0  0  0  0  0
  -13.1325  -71.2401  -24.8879 O   0  0  0  0  0  0  0  0  0  0  0  0
  -13.0034  -70.7350  -21.8869 N   0  0  0  0  0  0  0  0  0  0  0  0
  -11.9963  -69.6528  -22.0429 C   0  0  0  0  0  0  0  0  0  0  0  0
  -11.8791  -69.6329  -23.2868 O   0  0  0  0  0  0  0  0  0  0  0  0
  -11.2049  -70.4683  -21.0820 C   0  0  0  0  0  0  0  0  0  0  0  0
  -11.0889  -70.3629  -19.7061 C   0  0  0  0  0  0  0  0  0  0  0  0
   -9.9139  -70.8796  -19.1648 N   0  0  0  0  0  0  0  0  0  0  0  0
   -9.1503  -71.3314  -20.1405 C   0  0  0  0  0  0  0  0  0  0  0  0
   -7.7556  -71.6645  -20.0378 C   0  0  0  0  0  0  0  0  0  0  0  0
   -7.0946  -72.7094  -20.6643 C   0  0  0  0  0  0  0  0  0  0  0  0
   -5.6756  -72.6128  -20.5574 C   0  0  0  0  0  0  0  0  0  0  0  0
   -5.3190  -71.4989  -19.8483 C   0  0  0  0  0  0  0  0  0  0  0  0
   -3.7294  -70.9303  -19.5670 Cl  0  0  0  0  0  0  0  0  0  0  0  0
   -6.6399  -70.6448  -19.2250 S   0  0  0  0  0  0  0  0  0  0  0  0
   -9.8773  -71.3623  -21.6971 S   0  0  0  0  0  0  0  0  0  0  0  0
  1  2  1  0
  2  3  1  0
  2  4  1  0
  4  5  1  0
  2  6  1  0
  6  7  1  0
  7  8  2  0
  7  9  1  0
  9 10  2  0
 10 11  1  0
 11 12  2  0
 12 13  1  0
 13 14  2  0
 14 15  1  0
 15 16  2  0
 16 17  1  0
 16 18  1  0
 12 19  1  0
 19  9  1  0
 18 13  1  0
M  END
>  <ref_mols>  (40) 
d0248a,d0615a

>  <fragmenstein_runtime>  (40) 
[2.5421133041381836]

>  <scratch_subdir>  (40) 
['/opt/xchem-fragalysis-2/maxwin/BulkDock/SCRATCH/211010/C1226-P50']

>  <tags>  (40) 
['Fragmenstein placed']

>  <fragmenstein_mode>  (40) 
['expansion']

>  <SLURM_JOB_NAME>  (40) 
BulkDock.place:Flavi_NS5_RdRp:RdRp_knitwork_thumb_site_2_pure_split4000_batch000

>  <HIPPO Pose ID>  (40) 
41844

>  <exports>  (40) 
['/opt/xchem-fragalysis-2/maxwin/BulkDock/OUTPUTS/RdRp_knitwork_thumb_site_2_pure_split4000_batch000_211010.sdf', '/opt/xchem-fragalysis-2/maxwin/BulkDock/OUTPUTS/RdRp_knitwork_thumb_site_2_pure_fragalysis.sdf']

>  <inchikey>  (40) 
LGAJFWJWFLCBPR-UHFFFAOYSA-N

>  <csv_name>  (40) 
RdRp_knitwork_thumb_site_2_pure_split4000_batch000.csv

>  <alias>  (40) 
None

>  <fragmenstein_error>  (40) 
['']

>  <SLURM_JOB_ID>  (40) 
211010

>  <original SMILES>  (40) 
CC(C)(CO)NC(=O)c1cnc(-c2ccc(Cl)s2)s1

>  <name>  (40) 
LGAJFWJWFLCBPR-UHFFFAOYSA-N

>  <ref_pdb>  (40) 
d0615a

>  <original ID>  (40) 
LGAJFWJWFLCBPR-UHFFFAOYSA-N

>  <energy_score>  (40) 
-36.405919

>  <fragmenstein_outcome>  (40) 
['acceptable']

>  <HIPPO Compound ID>  (40) 
1226

>  <distance_score>  (40) 
0.878843

$$$$
44785
     RDKit          3D

 17 17  0  0  0  0  0  0  0  0999 V2000
  -14.5148  -69.4532  -22.8504 C   0  0  0  0  0  0  0  0  0  0  0  0
  -15.0894  -69.6309  -21.4606 C   0  0  0  0  0  0  0  0  0  0  0  0
  -13.8386  -69.7947  -20.1962 S   0  0  0  0  0  0  0  0  0  0  0  0
  -12.9713  -68.6447  -20.2407 O   0  0  0  0  0  0  0  0  0  0  0  0
  -14.4831  -70.1874  -18.9570 O   0  0  0  0  0  0  0  0  0  0  0  0
  -12.9969  -71.1467  -20.6957 N   0  0  0  0  0  0  0  0  0  0  0  0
  -11.6236  -70.9787  -21.1937 C   0  0  0  0  0  0  0  0  0  0  0  0
  -10.6570  -71.2295  -20.0770 C   0  0  0  0  0  0  0  0  0  0  0  0
  -10.7069  -70.8048  -18.7647 C   0  0  0  0  0  0  0  0  0  0  0  0
   -9.5743  -71.2148  -18.0095 C   0  0  0  0  0  0  0  0  0  0  0  0
   -8.6412  -71.8872  -18.7713 C   0  0  0  0  0  0  0  0  0  0  0  0
   -7.3764  -72.3817  -18.3535 C   0  0  0  0  0  0  0  0  0  0  0  0
   -6.2013  -72.0189  -18.8862 C   0  0  0  0  0  0  0  0  0  0  0  0
   -6.0149  -71.0406  -19.9602 C   0  0  0  0  0  0  0  0  0  0  0  0
   -6.8240  -70.2559  -20.4079 O   0  0  0  0  0  0  0  0  0  0  0  0
   -4.7416  -71.0802  -20.3700 O   0  0  0  0  0  0  0  0  0  0  0  0
   -9.2478  -72.1549  -20.3626 S   0  0  0  0  0  0  0  0  0  0  0  0
  1  2  1  0
  2  3  1  0
  3  4  2  0
  3  5  2  0
  3  6  1  0
  6  7  1  0
  7  8  1  0
  8  9  2  0
  9 10  1  0
 10 11  2  0
 11 12  1  0
 12 13  2  3
 13 14  1  0
 14 15  2  0
 14 16  1  0
 11 17  1  0
 17  8  1  0
M  END
>  <ref_mols>  (41) 
d0174a,d0376a

>  <fragmenstein_runtime>  (41) 
[3.151393175125122]

>  <scratch_subdir>  (41) 
['/opt/xchem-fragalysis-2/maxwin/BulkDock/SCRATCH/211010/C8588-P17']

>  <tags>  (41) 
['Fragmenstein placed']

>  <fragmenstein_mode>  (41) 
['expansion']

>  <SLURM_JOB_NAME>  (41) 
BulkDock.place:Flavi_NS5_RdRp:RdRp_knitwork_thumb_site_2_pure_split4000_batch000

>  <HIPPO Pose ID>  (41) 
44785

>  <exports>  (41) 
['/opt/xchem-fragalysis-2/maxwin/BulkDock/OUTPUTS/RdRp_knitwork_thumb_site_2_pure_split4000_batch000_211010.sdf', '/opt/xchem-fragalysis-2/maxwin/BulkDock/OUTPUTS/RdRp_knitwork_thumb_site_2_pure_fragalysis.sdf']

>  <inchikey>  (41) 
ZGDMPLGTNQKCSV-UHFFFAOYSA-N

>  <csv_name>  (41) 
RdRp_knitwork_thumb_site_2_pure_split4000_batch000.csv

>  <alias>  (41) 
None

>  <fragmenstein_error>  (41) 
['']

>  <SLURM_JOB_ID>  (41) 
211010

>  <original SMILES>  (41) 
CCS(=O)(=O)NCc1ccc(C=CC(=O)O)s1

>  <name>  (41) 
ZGDMPLGTNQKCSV-UHFFFAOYSA-N

>  <ref_pdb>  (41) 
d0174a

>  <original ID>  (41) 
ZGDMPLGTNQKCSV-UHFFFAOYSA-N

>  <energy_score>  (41) 
-49.418903

>  <fragmenstein_outcome>  (41) 
['acceptable']

>  <HIPPO Compound ID>  (41) 
8588

>  <distance_score>  (41) 
0.975005

$$$$
44789
     RDKit          3D

 17 17  0  0  0  0  0  0  0  0999 V2000
  -14.6712  -69.5786  -22.7934 C   0  0  0  0  0  0  0  0  0  0  0  0
  -15.1827  -69.7222  -21.3750 C   0  0  0  0  0  0  0  0  0  0  0  0
  -13.8635  -69.8252  -20.1729 S   0  0  0  0  0  0  0  0  0  0  0  0
  -13.0306  -68.6549  -20.2879 O   0  0  0  0  0  0  0  0  0  0  0  0
  -14.4261  -70.2096  -18.8924 O   0  0  0  0  0  0  0  0  0  0  0  0
  -13.0127  -71.1668  -20.6934 N   0  0  0  0  0  0  0  0  0  0  0  0
  -11.6391  -70.9814  -21.1866 C   0  0  0  0  0  0  0  0  0  0  0  0
  -10.6739  -71.2325  -20.0696 C   0  0  0  0  0  0  0  0  0  0  0  0
  -10.7081  -70.7734  -18.7689 C   0  0  0  0  0  0  0  0  0  0  0  0
   -9.5816  -71.1889  -18.0082 C   0  0  0  0  0  0  0  0  0  0  0  0
   -8.6672  -71.9004  -18.7567 C   0  0  0  0  0  0  0  0  0  0  0  0
   -7.4068  -72.4012  -18.3340 C   0  0  0  0  0  0  0  0  0  0  0  0
   -6.2290  -72.0443  -18.8645 C   0  0  0  0  0  0  0  0  0  0  0  0
   -6.0364  -71.0779  -19.9481 C   0  0  0  0  0  0  0  0  0  0  0  0
   -6.8548  -70.3346  -20.4461 O   0  0  0  0  0  0  0  0  0  0  0  0
   -4.7475  -71.0796  -20.3083 O   0  0  0  0  0  0  0  0  0  0  0  0
   -9.2906  -72.2023  -20.3352 S   0  0  0  0  0  0  0  0  0  0  0  0
  1  2  1  0
  2  3  1  0
  3  4  2  0
  3  5  2  0
  3  6  1  0
  6  7  1  0
  7  8  1  0
  8  9  2  0
  9 10  1  0
 10 11  2  0
 11 12  1  0
 12 13  2  3
 13 14  1  0
 14 15  2  0
 14 16  1  0
 11 17  1  0
 17  8  1  0
M  END
>  <ref_mols>  (42) 
d0174a,d0376a

>  <fragmenstein_runtime>  (42) 
[3.2291181087493896]

>  <scratch_subdir>  (42) 
['/opt/xchem-fragalysis-2/maxwin/BulkDock/SCRATCH/211010/C8588-P33']

>  <tags>  (42) 
['Fragmenstein placed']

>  <fragmenstein_mode>  (42) 
['expansion']

>  <SLURM_JOB_NAME>  (42) 
BulkDock.place:Flavi_NS5_RdRp:RdRp_knitwork_thumb_site_2_pure_split4000_batch000

>  <HIPPO Pose ID>  (42) 
44789

>  <exports>  (42) 
['/opt/xchem-fragalysis-2/maxwin/BulkDock/OUTPUTS/RdRp_knitwork_thumb_site_2_pure_split4000_batch000_211010.sdf', '/opt/xchem-fragalysis-2/maxwin/BulkDock/OUTPUTS/RdRp_knitwork_thumb_site_2_pure_fragalysis.sdf']

>  <inchikey>  (42) 
ZGDMPLGTNQKCSV-UHFFFAOYSA-N

>  <csv_name>  (42) 
RdRp_knitwork_thumb_site_2_pure_split4000_batch000.csv

>  <alias>  (42) 
None

>  <fragmenstein_error>  (42) 
['']

>  <SLURM_JOB_ID>  (42) 
211010

>  <original SMILES>  (42) 
CCS(=O)(=O)NCc1ccc(C=CC(=O)O)s1

>  <name>  (42) 
ZGDMPLGTNQKCSV-UHFFFAOYSA-N

>  <ref_pdb>  (42) 
d0376a

>  <original ID>  (42) 
ZGDMPLGTNQKCSV-UHFFFAOYSA-N

>  <energy_score>  (42) 
-49.223797

>  <fragmenstein_outcome>  (42) 
['acceptable']

>  <HIPPO Compound ID>  (42) 
8588

>  <distance_score>  (42) 
0.98129

$$$$
44926
     RDKit          3D

 20 21  0  0  0  0  0  0  0  0999 V2000
  -14.6180  -69.3384  -22.7542 C   0  0  0  0  0  0  0  0  0  0  0  0
  -15.1121  -69.4935  -21.3317 C   0  0  0  0  0  0  0  0  0  0  0  0
  -13.8123  -69.7577  -20.1327 S   0  0  0  0  0  0  0  0  0  0  0  0
  -12.9109  -68.6337  -20.1440 O   0  0  0  0  0  0  0  0  0  0  0  0
  -14.4212  -70.2029  -18.8933 O   0  0  0  0  0  0  0  0  0  0  0  0
  -13.0115  -71.0822  -20.7253 N   0  0  0  0  0  0  0  0  0  0  0  0
  -11.8353  -70.8792  -21.5747 C   0  0  0  0  0  0  0  0  0  0  0  0
  -10.5914  -71.1968  -20.8346 C   0  0  0  0  0  0  0  0  0  0  0  0
  -10.2674  -71.1276  -19.4932 C   0  0  0  0  0  0  0  0  0  0  0  0
   -8.9859  -71.5854  -19.4482 N   0  0  0  0  0  0  0  0  0  0  0  0
   -8.1215  -71.7187  -18.3008 C   0  0  0  0  0  0  0  0  0  0  0  0
   -6.6269  -71.8474  -18.6106 C   0  0  0  0  0  0  0  0  0  0  0  0
   -6.0587  -70.6036  -19.2904 C   0  0  0  0  0  0  0  0  0  0  0  0
   -4.6528  -70.7264  -19.5978 N   0  0  0  0  0  0  0  0  0  0  0  0
   -3.6121  -70.3763  -18.8035 C   0  0  0  0  0  0  0  0  0  0  0  0
   -2.4918  -70.4765  -19.4768 N   0  0  0  0  0  0  0  0  0  0  0  0
   -2.9093  -70.9448  -20.6922 C   0  0  0  0  0  0  0  0  0  0  0  0
   -4.2262  -71.1442  -20.7992 N   0  0  0  0  0  0  0  0  0  0  0  0
   -8.5429  -71.9160  -20.6665 N   0  0  0  0  0  0  0  0  0  0  0  0
   -9.5058  -71.6545  -21.5295 N   0  0  0  0  0  0  0  0  0  0  0  0
  1  2  1  0
  2  3  1  0
  3  4  2  0
  3  5  2  0
  3  6  1  0
  6  7  1  0
  7  8  1  0
  8  9  2  0
  9 10  1  0
 10 11  1  0
 11 12  1  0
 12 13  1  0
 13 14  1  0
 14 15  1  0
 15 16  2  0
 16 17  1  0
 17 18  2  0
 10 19  1  0
 19 20  2  0
 20  8  1  0
 18 14  1  0
M  END
>  <ref_mols>  (43) 
d0174a,d0376a

>  <fragmenstein_runtime>  (43) 
[8.988727807998657]

>  <scratch_subdir>  (43) 
['/opt/xchem-fragalysis-2/maxwin/BulkDock/SCRATCH/211010/C1623-P17']

>  <tags>  (43) 
['Fragmenstein placed']

>  <fragmenstein_mode>  (43) 
['expansion']

>  <SLURM_JOB_NAME>  (43) 
BulkDock.place:Flavi_NS5_RdRp:RdRp_knitwork_thumb_site_2_pure_split4000_batch000

>  <HIPPO Pose ID>  (43) 
44926

>  <exports>  (43) 
['/opt/xchem-fragalysis-2/maxwin/BulkDock/OUTPUTS/RdRp_knitwork_thumb_site_2_pure_split4000_batch000_211010.sdf', '/opt/xchem-fragalysis-2/maxwin/BulkDock/OUTPUTS/RdRp_knitwork_thumb_site_2_pure_fragalysis.sdf']

>  <inchikey>  (43) 
HGGFUOVXQYHLMH-UHFFFAOYSA-N

>  <csv_name>  (43) 
RdRp_knitwork_thumb_site_2_pure_split4000_batch000.csv

>  <alias>  (43) 
None

>  <fragmenstein_error>  (43) 
['']

>  <SLURM_JOB_ID>  (43) 
211010

>  <original SMILES>  (43) 
CCS(=O)(=O)NCc1cn(CCCn2cncn2)nn1

>  <name>  (43) 
HGGFUOVXQYHLMH-UHFFFAOYSA-N

>  <ref_pdb>  (43) 
d0174a

>  <original ID>  (43) 
HGGFUOVXQYHLMH-UHFFFAOYSA-N

>  <energy_score>  (43) 
-47.262829

>  <fragmenstein_outcome>  (43) 
['acceptable']

>  <HIPPO Compound ID>  (43) 
1623

>  <distance_score>  (43) 
0.79635

$$$$
44932
     RDKit          3D

 20 21  0  0  0  0  0  0  0  0999 V2000
  -14.7288  -69.5397  -22.7346 C   0  0  0  0  0  0  0  0  0  0  0  0
  -15.1876  -69.6708  -21.2978 C   0  0  0  0  0  0  0  0  0  0  0  0
  -13.8372  -69.8269  -20.1338 S   0  0  0  0  0  0  0  0  0  0  0  0
  -12.9646  -68.6887  -20.2592 O   0  0  0  0  0  0  0  0  0  0  0  0
  -14.3870  -70.2070  -18.8458 O   0  0  0  0  0  0  0  0  0  0  0  0
  -13.0397  -71.1906  -20.6685 N   0  0  0  0  0  0  0  0  0  0  0  0
  -11.8369  -71.0223  -21.4926 C   0  0  0  0  0  0  0  0  0  0  0  0
  -10.6158  -71.0261  -20.6494 C   0  0  0  0  0  0  0  0  0  0  0  0
  -10.2092  -71.8867  -19.6475 C   0  0  0  0  0  0  0  0  0  0  0  0
   -8.9735  -71.4251  -19.3051 N   0  0  0  0  0  0  0  0  0  0  0  0
   -8.0197  -72.0305  -18.4048 C   0  0  0  0  0  0  0  0  0  0  0  0
   -6.6026  -71.4479  -18.4327 C   0  0  0  0  0  0  0  0  0  0  0  0
   -5.9172  -71.6082  -19.7878 C   0  0  0  0  0  0  0  0  0  0  0  0
   -4.5973  -71.0226  -19.8492 N   0  0  0  0  0  0  0  0  0  0  0  0
   -4.2447  -69.7178  -19.7030 C   0  0  0  0  0  0  0  0  0  0  0  0
   -2.9600  -69.5860  -19.9392 N   0  0  0  0  0  0  0  0  0  0  0  0
   -2.5753  -70.8537  -20.2657 C   0  0  0  0  0  0  0  0  0  0  0  0
   -3.5429  -71.7731  -20.2146 N   0  0  0  0  0  0  0  0  0  0  0  0
   -8.6537  -70.3301  -20.0059 N   0  0  0  0  0  0  0  0  0  0  0  0
   -9.6350  -70.0947  -20.8578 N   0  0  0  0  0  0  0  0  0  0  0  0
  1  2  1  0
  2  3  1  0
  3  4  2  0
  3  5  2  0
  3  6  1  0
  6  7  1  0
  7  8  1  0
  8  9  2  0
  9 10  1  0
 10 11  1  0
 11 12  1  0
 12 13  1  0
 13 14  1  0
 14 15  1  0
 15 16  2  0
 16 17  1  0
 17 18  2  0
 10 19  1  0
 19 20  2  0
 20  8  1  0
 18 14  1  0
M  END
>  <ref_mols>  (44) 
d0174a,d0376a

>  <fragmenstein_runtime>  (44) 
[9.383780002593994]

>  <scratch_subdir>  (44) 
['/opt/xchem-fragalysis-2/maxwin/BulkDock/SCRATCH/211010/C1623-P33']

>  <tags>  (44) 
['Fragmenstein placed']

>  <fragmenstein_mode>  (44) 
['expansion']

>  <SLURM_JOB_NAME>  (44) 
BulkDock.place:Flavi_NS5_RdRp:RdRp_knitwork_thumb_site_2_pure_split4000_batch000

>  <HIPPO Pose ID>  (44) 
44932

>  <exports>  (44) 
['/opt/xchem-fragalysis-2/maxwin/BulkDock/OUTPUTS/RdRp_knitwork_thumb_site_2_pure_split4000_batch000_211010.sdf', '/opt/xchem-fragalysis-2/maxwin/BulkDock/OUTPUTS/RdRp_knitwork_thumb_site_2_pure_fragalysis.sdf']

>  <inchikey>  (44) 
HGGFUOVXQYHLMH-UHFFFAOYSA-N

>  <csv_name>  (44) 
RdRp_knitwork_thumb_site_2_pure_split4000_batch000.csv

>  <alias>  (44) 
None

>  <fragmenstein_error>  (44) 
['']

>  <SLURM_JOB_ID>  (44) 
211010

>  <original SMILES>  (44) 
CCS(=O)(=O)NCc1cn(CCCn2cncn2)nn1

>  <name>  (44) 
HGGFUOVXQYHLMH-UHFFFAOYSA-N

>  <ref_pdb>  (44) 
d0376a

>  <original ID>  (44) 
HGGFUOVXQYHLMH-UHFFFAOYSA-N

>  <energy_score>  (44) 
-46.271314

>  <fragmenstein_outcome>  (44) 
['acceptable']

>  <HIPPO Compound ID>  (44) 
1623

>  <distance_score>  (44) 
0.884151

$$$$
44934
     RDKit          3D

 21 22  0  0  0  0  0  0  0  0999 V2000
   -1.4579  -69.2503  -21.1695 C   0  0  0  0  0  0  0  0  0  0  0  0
   -2.6868  -69.6591  -20.3866 C   0  0  0  0  0  0  0  0  0  0  0  0
   -3.3983  -70.8770  -20.9686 C   0  0  0  0  0  0  0  0  0  0  0  0
   -4.5970  -71.2084  -20.1564 C   0  0  0  0  0  0  0  0  0  0  0  0
   -4.4986  -71.5831  -18.8757 N   0  0  0  0  0  0  0  0  0  0  0  0
   -5.8228  -71.6624  -18.4690 O   0  0  0  0  0  0  0  0  0  0  0  0
   -6.6002  -71.3360  -19.5484 C   0  0  0  0  0  0  0  0  0  0  0  0
   -8.0432  -71.3675  -19.3198 C   0  0  0  0  0  0  0  0  0  0  0  0
   -8.5322  -71.7258  -18.0533 C   0  0  0  0  0  0  0  0  0  0  0  0
   -9.8961  -71.7641  -17.7925 C   0  0  0  0  0  0  0  0  0  0  0  0
  -10.8028  -71.4575  -18.8001 C   0  0  0  0  0  0  0  0  0  0  0  0
  -10.3655  -71.1169  -20.0888 C   0  0  0  0  0  0  0  0  0  0  0  0
  -11.3422  -70.8282  -21.2130 C   0  0  0  0  0  0  0  0  0  0  0  0
  -12.7643  -71.0708  -20.8954 N   0  0  0  0  0  0  0  0  0  0  0  0
  -13.6834  -69.8181  -20.2703 S   0  0  0  0  0  0  0  0  0  0  0  0
  -12.8921  -68.6150  -20.2417 O   0  0  0  0  0  0  0  0  0  0  0  0
  -14.2942  -70.3358  -19.0595 O   0  0  0  0  0  0  0  0  0  0  0  0
  -14.9633  -69.6406  -21.5047 C   0  0  0  0  0  0  0  0  0  0  0  0
  -14.4226  -69.3659  -22.8917 C   0  0  0  0  0  0  0  0  0  0  0  0
   -8.9727  -71.0607  -20.3321 C   0  0  0  0  0  0  0  0  0  0  0  0
   -5.8844  -71.0499  -20.6111 N   0  0  0  0  0  0  0  0  0  0  0  0
  1  2  1  0
  2  3  1  0
  3  4  1  0
  4  5  2  0
  5  6  1  0
  6  7  1  0
  7  8  1  0
  8  9  2  0
  9 10  1  0
 10 11  2  0
 11 12  1  0
 12 13  1  0
 13 14  1  0
 14 15  1  0
 15 16  2  0
 15 17  2  0
 15 18  1  0
 18 19  1  0
 12 20  2  0
  7 21  2  0
 21  4  1  0
 20  8  1  0
M  END
>  <ref_mols>  (45) 
d0174a,d0376a

>  <fragmenstein_runtime>  (45) 
[5.435765743255615]

>  <scratch_subdir>  (45) 
['/opt/xchem-fragalysis-2/maxwin/BulkDock/SCRATCH/211010/C1660-P17']

>  <tags>  (45) 
['Fragmenstein placed']

>  <fragmenstein_mode>  (45) 
['expansion']

>  <SLURM_JOB_NAME>  (45) 
BulkDock.place:Flavi_NS5_RdRp:RdRp_knitwork_thumb_site_2_pure_split4000_batch000

>  <HIPPO Pose ID>  (45) 
44934

>  <exports>  (45) 
['/opt/xchem-fragalysis-2/maxwin/BulkDock/OUTPUTS/RdRp_knitwork_thumb_site_2_pure_split4000_batch000_211010.sdf', '/opt/xchem-fragalysis-2/maxwin/BulkDock/OUTPUTS/RdRp_knitwork_thumb_site_2_pure_fragalysis.sdf']

>  <inchikey>  (45) 
YQFVJMIBNJLNNB-UHFFFAOYSA-N

>  <csv_name>  (45) 
RdRp_knitwork_thumb_site_2_pure_split4000_batch000.csv

>  <alias>  (45) 
None

>  <fragmenstein_error>  (45) 
['']

>  <SLURM_JOB_ID>  (45) 
211010

>  <original SMILES>  (45) 
CCCc1noc(-c2cccc(CNS(=O)(=O)CC)c2)n1

>  <name>  (45) 
YQFVJMIBNJLNNB-UHFFFAOYSA-N

>  <ref_pdb>  (45) 
d0174a

>  <original ID>  (45) 
YQFVJMIBNJLNNB-UHFFFAOYSA-N

>  <energy_score>  (45) 
-46.807421

>  <fragmenstein_outcome>  (45) 
['acceptable']

>  <HIPPO Compound ID>  (45) 
1660

>  <distance_score>  (45) 
0.923877

$$$$
44939
     RDKit          3D

 21 22  0  0  0  0  0  0  0  0999 V2000
   -1.6039  -68.5951  -20.5590 C   0  0  0  0  0  0  0  0  0  0  0  0
   -2.8137  -69.2229  -19.8940 C   0  0  0  0  0  0  0  0  0  0  0  0
   -3.3886  -70.3789  -20.7156 C   0  0  0  0  0  0  0  0  0  0  0  0
   -4.5856  -70.9485  -20.0496 C   0  0  0  0  0  0  0  0  0  0  0  0
   -4.4906  -71.6620  -18.9228 N   0  0  0  0  0  0  0  0  0  0  0  0
   -5.8172  -71.8729  -18.5736 O   0  0  0  0  0  0  0  0  0  0  0  0
   -6.5910  -71.2662  -19.5274 C   0  0  0  0  0  0  0  0  0  0  0  0
   -8.0336  -71.3501  -19.3120 C   0  0  0  0  0  0  0  0  0  0  0  0
   -8.5159  -71.7852  -18.0671 C   0  0  0  0  0  0  0  0  0  0  0  0
   -9.8789  -71.8726  -17.8134 C   0  0  0  0  0  0  0  0  0  0  0  0
  -10.7911  -71.5406  -18.8079 C   0  0  0  0  0  0  0  0  0  0  0  0
  -10.3597  -71.1211  -20.0750 C   0  0  0  0  0  0  0  0  0  0  0  0
  -11.3398  -70.8105  -21.1898 C   0  0  0  0  0  0  0  0  0  0  0  0
  -12.7599  -71.0811  -20.8865 N   0  0  0  0  0  0  0  0  0  0  0  0
  -13.6968  -69.8572  -20.2277 S   0  0  0  0  0  0  0  0  0  0  0  0
  -12.9569  -68.6219  -20.2660 O   0  0  0  0  0  0  0  0  0  0  0  0
  -14.2139  -70.3768  -18.9753 O   0  0  0  0  0  0  0  0  0  0  0  0
  -15.0489  -69.7563  -21.3931 C   0  0  0  0  0  0  0  0  0  0  0  0
  -14.5843  -69.5254  -22.8149 C   0  0  0  0  0  0  0  0  0  0  0  0
   -8.9680  -71.0108  -20.3088 C   0  0  0  0  0  0  0  0  0  0  0  0
   -5.8721  -70.6934  -20.4649 N   0  0  0  0  0  0  0  0  0  0  0  0
  1  2  1  0
  2  3  1  0
  3  4  1  0
  4  5  2  0
  5  6  1  0
  6  7  1  0
  7  8  1  0
  8  9  2  0
  9 10  1  0
 10 11  2  0
 11 12  1  0
 12 13  1  0
 13 14  1  0
 14 15  1  0
 15 16  2  0
 15 17  2  0
 15 18  1  0
 18 19  1  0
 12 20  2  0
  7 21  2  0
 21  4  1  0
 20  8  1  0
M  END
>  <ref_mols>  (46) 
d0174a,d0376a

>  <fragmenstein_runtime>  (46) 
[5.6083855628967285]

>  <scratch_subdir>  (46) 
['/opt/xchem-fragalysis-2/maxwin/BulkDock/SCRATCH/211010/C1660-P33']

>  <tags>  (46) 
['Fragmenstein placed']

>  <fragmenstein_mode>  (46) 
['expansion']

>  <SLURM_JOB_NAME>  (46) 
BulkDock.place:Flavi_NS5_RdRp:RdRp_knitwork_thumb_site_2_pure_split4000_batch000

>  <HIPPO Pose ID>  (46) 
44939

>  <exports>  (46) 
['/opt/xchem-fragalysis-2/maxwin/BulkDock/OUTPUTS/RdRp_knitwork_thumb_site_2_pure_split4000_batch000_211010.sdf', '/opt/xchem-fragalysis-2/maxwin/BulkDock/OUTPUTS/RdRp_knitwork_thumb_site_2_pure_fragalysis.sdf']

>  <inchikey>  (46) 
YQFVJMIBNJLNNB-UHFFFAOYSA-N

>  <csv_name>  (46) 
RdRp_knitwork_thumb_site_2_pure_split4000_batch000.csv

>  <alias>  (46) 
None

>  <fragmenstein_error>  (46) 
['']

>  <SLURM_JOB_ID>  (46) 
211010

>  <original SMILES>  (46) 
CCCc1noc(-c2cccc(CNS(=O)(=O)CC)c2)n1

>  <name>  (46) 
YQFVJMIBNJLNNB-UHFFFAOYSA-N

>  <ref_pdb>  (46) 
d0376a

>  <original ID>  (46) 
YQFVJMIBNJLNNB-UHFFFAOYSA-N

>  <energy_score>  (46) 
-46.592511

>  <fragmenstein_outcome>  (46) 
['acceptable']

>  <HIPPO Compound ID>  (46) 
1660

>  <distance_score>  (46) 
0.799395

$$$$
45299
     RDKit          3D

 22 23  0  0  0  0  0  0  0  0999 V2000
  -13.2794  -70.9045  -19.2742 C   0  0  0  0  0  0  0  0  0  0  0  0
  -11.8375  -71.0265  -19.5526 N   0  0  0  0  0  0  0  0  0  0  0  0
  -11.2970  -70.8370  -20.8755 C   0  0  0  0  0  0  0  0  0  0  0  0
  -11.9638  -69.9247  -21.9598 C   0  0  0  0  0  0  0  0  0  0  0  0
  -11.5487  -69.8207  -23.1325 O   0  0  0  0  0  0  0  0  0  0  0  0
  -12.9506  -71.0811  -22.0739 N   0  0  0  0  0  0  0  0  0  0  0  0
  -14.1380  -70.9277  -22.9679 C   0  0  0  0  0  0  0  0  0  0  0  0
  -14.4542  -69.4563  -23.3244 C   0  0  0  0  0  0  0  0  0  0  0  0
  -15.3661  -71.4756  -22.2198 C   0  0  0  0  0  0  0  0  0  0  0  0
  -13.9278  -71.7622  -24.2525 C   0  0  0  0  0  0  0  0  0  0  0  0
  -12.8125  -71.3217  -25.0165 O   0  0  0  0  0  0  0  0  0  0  0  0
   -9.9716  -71.0000  -21.0339 C   0  0  0  0  0  0  0  0  0  0  0  0
   -9.0968  -71.5084  -19.9422 C   0  0  0  0  0  0  0  0  0  0  0  0
   -7.6632  -71.2745  -20.0527 C   0  0  0  0  0  0  0  0  0  0  0  0
   -7.0060  -70.1486  -20.5041 C   0  0  0  0  0  0  0  0  0  0  0  0
   -5.5948  -70.2143  -20.2974 C   0  0  0  0  0  0  0  0  0  0  0  0
   -5.2095  -71.4325  -19.7898 C   0  0  0  0  0  0  0  0  0  0  0  0
   -6.5464  -72.4593  -19.5180 S   0  0  0  0  0  0  0  0  0  0  0  0
   -9.5092  -72.1029  -18.8785 N   0  0  0  0  0  0  0  0  0  0  0  0
  -11.0873  -72.2845  -18.6990 S   0  0  0  0  0  0  0  0  0  0  0  0
  -11.5060  -73.5037  -19.3614 O   0  0  0  0  0  0  0  0  0  0  0  0
  -11.4017  -72.0798  -17.2997 O   0  0  0  0  0  0  0  0  0  0  0  0
  1  2  1  0
  2  3  1  0
  3  4  1  0
  4  5  2  0
  4  6  1  0
  6  7  1  0
  7  8  1  0
  7  9  1  0
  7 10  1  0
 10 11  1  0
  3 12  2  0
 12 13  1  0
 13 14  1  0
 14 15  2  0
 15 16  1  0
 16 17  2  0
 17 18  1  0
 13 19  2  0
 19 20  1  0
 20 21  2  0
 20 22  2  0
 20  2  1  0
 18 14  1  0
M  END
>  <ref_mols>  (47) 
d0248a,d0376a

>  <fragmenstein_runtime>  (47) 
[3.1714494228363037]

>  <scratch_subdir>  (47) 
['/opt/xchem-fragalysis-2/maxwin/BulkDock/SCRATCH/211010/C1196-P22']

>  <tags>  (47) 
['Fragmenstein placed']

>  <fragmenstein_mode>  (47) 
['expansion']

>  <SLURM_JOB_NAME>  (47) 
BulkDock.place:Flavi_NS5_RdRp:RdRp_knitwork_thumb_site_2_pure_split4000_batch000

>  <HIPPO Pose ID>  (47) 
45299

>  <exports>  (47) 
['/opt/xchem-fragalysis-2/maxwin/BulkDock/OUTPUTS/RdRp_knitwork_thumb_site_2_pure_split4000_batch000_211010.sdf', '/opt/xchem-fragalysis-2/maxwin/BulkDock/OUTPUTS/RdRp_knitwork_thumb_site_2_pure_fragalysis.sdf']

>  <inchikey>  (47) 
MIMUCYDXYWWPLR-UHFFFAOYSA-N

>  <csv_name>  (47) 
RdRp_knitwork_thumb_site_2_pure_split4000_batch000.csv

>  <alias>  (47) 
None

>  <fragmenstein_error>  (47) 
['']

>  <SLURM_JOB_ID>  (47) 
211010

>  <original SMILES>  (47) 
CN1C(C(=O)NC(C)(C)CO)=CC(c2cccs2)=NS1(=O)=O

>  <name>  (47) 
MIMUCYDXYWWPLR-UHFFFAOYSA-N

>  <ref_pdb>  (47) 
d0248a

>  <original ID>  (47) 
MIMUCYDXYWWPLR-UHFFFAOYSA-N

>  <energy_score>  (47) 
-23.178598

>  <fragmenstein_outcome>  (47) 
['acceptable']

>  <HIPPO Compound ID>  (47) 
1196

>  <distance_score>  (47) 
0.843456

$$$$
45300
     RDKit          3D

 22 23  0  0  0  0  0  0  0  0999 V2000
  -12.3301  -69.3986  -19.4759 C   0  0  0  0  0  0  0  0  0  0  0  0
  -11.2096  -70.2952  -19.7168 N   0  0  0  0  0  0  0  0  0  0  0  0
  -10.8113  -70.6903  -21.0301 C   0  0  0  0  0  0  0  0  0  0  0  0
  -11.4503  -70.0332  -22.2782 C   0  0  0  0  0  0  0  0  0  0  0  0
  -11.2263  -70.3572  -23.4544 O   0  0  0  0  0  0  0  0  0  0  0  0
  -12.6520  -70.9317  -21.8811 N   0  0  0  0  0  0  0  0  0  0  0  0
  -13.9205  -70.8027  -22.6481 C   0  0  0  0  0  0  0  0  0  0  0  0
  -14.2194  -69.3353  -23.0010 C   0  0  0  0  0  0  0  0  0  0  0  0
  -15.0679  -71.2928  -21.7427 C   0  0  0  0  0  0  0  0  0  0  0  0
  -13.9168  -71.6790  -23.9181 C   0  0  0  0  0  0  0  0  0  0  0  0
  -13.1032  -71.1830  -24.9673 O   0  0  0  0  0  0  0  0  0  0  0  0
   -9.5963  -71.2517  -21.1412 C   0  0  0  0  0  0  0  0  0  0  0  0
   -8.7915  -71.5466  -19.9141 C   0  0  0  0  0  0  0  0  0  0  0  0
   -7.3469  -71.6244  -20.0295 C   0  0  0  0  0  0  0  0  0  0  0  0
   -6.4164  -70.9482  -19.2606 C   0  0  0  0  0  0  0  0  0  0  0  0
   -5.0772  -71.2323  -19.6420 C   0  0  0  0  0  0  0  0  0  0  0  0
   -5.0288  -72.1783  -20.6398 C   0  0  0  0  0  0  0  0  0  0  0  0
   -6.5905  -72.6991  -21.1145 S   0  0  0  0  0  0  0  0  0  0  0  0
   -9.2622  -71.6830  -18.7205 N   0  0  0  0  0  0  0  0  0  0  0  0
  -10.8328  -71.4350  -18.5418 S   0  0  0  0  0  0  0  0  0  0  0  0
  -11.5771  -72.6240  -18.9031 O   0  0  0  0  0  0  0  0  0  0  0  0
  -11.0465  -70.8287  -17.2460 O   0  0  0  0  0  0  0  0  0  0  0  0
  1  2  1  0
  2  3  1  0
  3  4  1  0
  4  5  2  0
  4  6  1  0
  6  7  1  0
  7  8  1  0
  7  9  1  0
  7 10  1  0
 10 11  1  0
  3 12  2  0
 12 13  1  0
 13 14  1  0
 14 15  2  0
 15 16  1  0
 16 17  2  0
 17 18  1  0
 13 19  2  0
 19 20  1  0
 20 21  2  0
 20 22  2  0
 20  2  1  0
 18 14  1  0
M  END
>  <ref_mols>  (48) 
d0248a,d0376a

>  <fragmenstein_runtime>  (48) 
[3.542532444000244]

>  <scratch_subdir>  (48) 
['/opt/xchem-fragalysis-2/maxwin/BulkDock/SCRATCH/211010/C1196-P33']

>  <tags>  (48) 
['Fragmenstein placed']

>  <fragmenstein_mode>  (48) 
['expansion']

>  <SLURM_JOB_NAME>  (48) 
BulkDock.place:Flavi_NS5_RdRp:RdRp_knitwork_thumb_site_2_pure_split4000_batch000

>  <HIPPO Pose ID>  (48) 
45300

>  <exports>  (48) 
['/opt/xchem-fragalysis-2/maxwin/BulkDock/OUTPUTS/RdRp_knitwork_thumb_site_2_pure_split4000_batch000_211010.sdf', '/opt/xchem-fragalysis-2/maxwin/BulkDock/OUTPUTS/RdRp_knitwork_thumb_site_2_pure_fragalysis.sdf']

>  <inchikey>  (48) 
MIMUCYDXYWWPLR-UHFFFAOYSA-N

>  <csv_name>  (48) 
RdRp_knitwork_thumb_site_2_pure_split4000_batch000.csv

>  <alias>  (48) 
None

>  <fragmenstein_error>  (48) 
['']

>  <SLURM_JOB_ID>  (48) 
211010

>  <original SMILES>  (48) 
CN1C(C(=O)NC(C)(C)CO)=CC(c2cccs2)=NS1(=O)=O

>  <name>  (48) 
MIMUCYDXYWWPLR-UHFFFAOYSA-N

>  <ref_pdb>  (48) 
d0376a

>  <original ID>  (48) 
MIMUCYDXYWWPLR-UHFFFAOYSA-N

>  <energy_score>  (48) 
-26.323441

>  <fragmenstein_outcome>  (48) 
['acceptable']

>  <HIPPO Compound ID>  (48) 
1196

>  <distance_score>  (48) 
0.758685

$$$$
47094
     RDKit          3D

 21 23  0  0  0  0  0  0  0  0999 V2000
  -12.6058  -68.8107  -20.1157 O   0  0  0  0  0  0  0  0  0  0  0  0
  -13.6003  -69.8223  -20.3660 S   0  0  0  0  0  0  0  0  0  0  0  0
  -14.5465  -70.1834  -19.3272 O   0  0  0  0  0  0  0  0  0  0  0  0
  -14.5073  -69.3947  -21.8589 C   0  0  0  0  0  0  0  0  0  0  0  0
  -15.1497  -70.6075  -22.5050 C   0  0  0  0  0  0  0  0  0  0  0  0
  -15.8794  -70.3067  -23.7630 C   0  0  0  0  0  0  0  0  0  0  0  0
  -17.2452  -69.9972  -23.9250 C   0  0  0  0  0  0  0  0  0  0  0  0
  -17.5640  -69.7278  -25.1912 N   0  0  0  0  0  0  0  0  0  0  0  0
  -16.4101  -69.9836  -25.9130 O   0  0  0  0  0  0  0  0  0  0  0  0
  -15.4121  -70.3190  -25.0566 C   0  0  0  0  0  0  0  0  0  0  0  0
  -12.8432  -71.2482  -20.7489 N   0  0  0  0  0  0  0  0  0  0  0  0
  -11.4923  -71.3566  -21.3168 C   0  0  2  0  0  0  0  0  0  0  0  0
  -10.3741  -71.2849  -20.2924 C   0  0  0  0  0  0  0  0  0  0  0  0
  -10.4544  -72.0275  -19.1037 C   0  0  0  0  0  0  0  0  0  0  0  0
   -9.3693  -72.0897  -18.2322 C   0  0  0  0  0  0  0  0  0  0  0  0
   -8.2157  -71.4124  -18.5760 C   0  0  0  0  0  0  0  0  0  0  0  0
   -8.0946  -70.6716  -19.6930 N   0  0  0  0  0  0  0  0  0  0  0  0
   -9.1706  -70.6166  -20.5154 C   0  0  0  0  0  0  0  0  0  0  0  0
  -11.2991  -70.4705  -22.5136 C   0  0  0  0  0  0  0  0  0  0  0  0
  -10.2926  -70.8363  -23.5862 C   0  0  0  0  0  0  0  0  0  0  0  0
  -11.7543  -70.8643  -23.9001 C   0  0  0  0  0  0  0  0  0  0  0  0
  1  2  2  0
  2  3  2  0
  2  4  1  0
  4  5  1  0
  5  6  1  0
  6  7  1  0
  7  8  2  0
  8  9  1  0
  9 10  1  0
  2 11  1  0
 12 11  1  1
 12 13  1  0
 13 14  2  0
 14 15  1  0
 15 16  2  0
 16 17  1  0
 17 18  2  0
 12 19  1  0
 19 20  1  0
 20 21  1  0
 10  6  2  0
 18 13  1  0
 21 19  1  0
M  END
>  <ref_mols>  (49) 
d0174a,d0279a,d0615a

>  <fragmenstein_runtime>  (49) 
[4.315766096115112]

>  <scratch_subdir>  (49) 
['/opt/xchem-fragalysis-2/maxwin/BulkDock/SCRATCH/211010/C1504-P17']

>  <tags>  (49) 
['Fragmenstein placed']

>  <fragmenstein_mode>  (49) 
['expansion']

>  <SLURM_JOB_NAME>  (49) 
BulkDock.place:Flavi_NS5_RdRp:RdRp_knitwork_thumb_site_2_pure_split4000_batch000

>  <HIPPO Pose ID>  (49) 
47094

>  <exports>  (49) 
['/opt/xchem-fragalysis-2/maxwin/BulkDock/OUTPUTS/RdRp_knitwork_thumb_site_2_pure_split4000_batch000_211010.sdf', '/opt/xchem-fragalysis-2/maxwin/BulkDock/OUTPUTS/RdRp_knitwork_thumb_site_2_pure_fragalysis.sdf']

>  <inchikey>  (49) 
QXPKZAYBHAOLKZ-AWEZNQCLSA-N

>  <csv_name>  (49) 
RdRp_knitwork_thumb_site_2_pure_split4000_batch000.csv

>  <alias>  (49) 
None

>  <fragmenstein_error>  (49) 
['']

>  <SLURM_JOB_ID>  (49) 
211010

>  <original SMILES>  (49) 
O=S(=O)(CCc1cnoc1)N[C@H](c1cccnc1)C1CC1

>  <name>  (49) 
QXPKZAYBHAOLKZ-AWEZNQCLSA-N

>  <ref_pdb>  (49) 
d0174a

>  <original ID>  (49) 
QXPKZAYBHAOLKZ-AWEZNQCLSA-N

>  <energy_score>  (49) 
-83.763917

>  <fragmenstein_outcome>  (49) 
['acceptable']

>  <HIPPO Compound ID>  (49) 
1504

>  <distance_score>  (49) 
0.828643

$$$$
47096
     RDKit          3D

 21 23  0  0  0  0  0  0  0  0999 V2000
  -12.7765  -68.8338  -20.4076 O   0  0  0  0  0  0  0  0  0  0  0  0
  -13.6383  -69.9748  -20.2413 S   0  0  0  0  0  0  0  0  0  0  0  0
  -14.1678  -70.3336  -18.9375 O   0  0  0  0  0  0  0  0  0  0  0  0
  -15.0309  -69.8249  -21.3568 C   0  0  0  0  0  0  0  0  0  0  0  0
  -14.6328  -69.9681  -22.8149 C   0  0  0  0  0  0  0  0  0  0  0  0
  -15.7667  -70.0211  -23.7751 C   0  0  0  0  0  0  0  0  0  0  0  0
  -15.6836  -70.1298  -25.1831 C   0  0  0  0  0  0  0  0  0  0  0  0
  -16.8823  -70.0681  -25.7664 N   0  0  0  0  0  0  0  0  0  0  0  0
  -17.7888  -70.0017  -24.7259 O   0  0  0  0  0  0  0  0  0  0  0  0
  -17.1208  -70.0234  -23.5489 C   0  0  0  0  0  0  0  0  0  0  0  0
  -12.8870  -71.3581  -20.7964 N   0  0  0  0  0  0  0  0  0  0  0  0
  -11.4975  -71.3910  -21.3000 C   0  0  2  0  0  0  0  0  0  0  0  0
  -10.4162  -71.2552  -20.2443 C   0  0  0  0  0  0  0  0  0  0  0  0
  -10.4827  -72.0133  -19.0648 C   0  0  0  0  0  0  0  0  0  0  0  0
   -9.4039  -72.0489  -18.1842 C   0  0  0  0  0  0  0  0  0  0  0  0
   -8.2712  -71.3291  -18.5100 C   0  0  0  0  0  0  0  0  0  0  0  0
   -8.1690  -70.5639  -19.6122 N   0  0  0  0  0  0  0  0  0  0  0  0
   -9.2405  -70.5318  -20.4414 C   0  0  0  0  0  0  0  0  0  0  0  0
  -11.2949  -70.5488  -22.5331 C   0  0  0  0  0  0  0  0  0  0  0  0
  -10.1745  -70.8726  -23.5073 C   0  0  0  0  0  0  0  0  0  0  0  0
  -11.5941  -71.0683  -23.9249 C   0  0  0  0  0  0  0  0  0  0  0  0
  1  2  2  0
  2  3  2  0
  2  4  1  0
  4  5  1  0
  5  6  1  0
  6  7  1  0
  7  8  2  0
  8  9  1  0
  9 10  1  0
  2 11  1  0
 12 11  1  1
 12 13  1  0
 13 14  2  0
 14 15  1  0
 15 16  2  0
 16 17  1  0
 17 18  2  0
 12 19  1  0
 19 20  1  0
 20 21  1  0
 10  6  2  0
 18 13  1  0
 21 19  1  0
M  END
>  <ref_mols>  (50) 
d0174a,d0615a

>  <fragmenstein_runtime>  (50) 
[4.296845436096191]

>  <scratch_subdir>  (50) 
['/opt/xchem-fragalysis-2/maxwin/BulkDock/SCRATCH/211010/C1504-P50']

>  <tags>  (50) 
['Fragmenstein placed']

>  <fragmenstein_mode>  (50) 
['expansion']

>  <SLURM_JOB_NAME>  (50) 
BulkDock.place:Flavi_NS5_RdRp:RdRp_knitwork_thumb_site_2_pure_split4000_batch000

>  <HIPPO Pose ID>  (50) 
47096

>  <exports>  (50) 
['/opt/xchem-fragalysis-2/maxwin/BulkDock/OUTPUTS/RdRp_knitwork_thumb_site_2_pure_split4000_batch000_211010.sdf', '/opt/xchem-fragalysis-2/maxwin/BulkDock/OUTPUTS/RdRp_knitwork_thumb_site_2_pure_fragalysis.sdf']

>  <inchikey>  (50) 
QXPKZAYBHAOLKZ-AWEZNQCLSA-N

>  <csv_name>  (50) 
RdRp_knitwork_thumb_site_2_pure_split4000_batch000.csv

>  <alias>  (50) 
None

>  <fragmenstein_error>  (50) 
['']

>  <SLURM_JOB_ID>  (50) 
211010

>  <original SMILES>  (50) 
O=S(=O)(CCc1cnoc1)N[C@H](c1cccnc1)C1CC1

>  <name>  (50) 
QXPKZAYBHAOLKZ-AWEZNQCLSA-N

>  <ref_pdb>  (50) 
d0615a

>  <original ID>  (50) 
QXPKZAYBHAOLKZ-AWEZNQCLSA-N

>  <energy_score>  (50) 
-79.270305

>  <fragmenstein_outcome>  (50) 
['acceptable']

>  <HIPPO Compound ID>  (50) 
1504

>  <distance_score>  (50) 
0.78101

$$$$
47098
     RDKit          3D

 24 26  0  0  0  0  0  0  0  0999 V2000
  -12.8958  -68.4726  -19.9384 O   0  0  0  0  0  0  0  0  0  0  0  0
  -13.7777  -69.5614  -20.2669 S   0  0  0  0  0  0  0  0  0  0  0  0
  -14.7373  -70.0478  -19.2983 O   0  0  0  0  0  0  0  0  0  0  0  0
  -14.5920  -69.1984  -21.8181 C   0  0  0  0  0  0  0  0  0  0  0  0
  -15.3911  -70.3790  -22.3262 C   0  0  0  0  0  0  0  0  0  0  0  0
  -15.7876  -70.2599  -23.7503 C   0  0  0  0  0  0  0  0  0  0  0  0
  -17.0694  -70.0271  -24.2926 C   0  0  0  0  0  0  0  0  0  0  0  0
  -17.0505  -69.9687  -25.6244 N   0  0  0  0  0  0  0  0  0  0  0  0
  -15.7398  -70.2275  -25.9852 O   0  0  0  0  0  0  0  0  0  0  0  0
  -14.9936  -70.3946  -24.8663 C   0  0  0  0  0  0  0  0  0  0  0  0
  -12.8368  -70.8810  -20.6413 N   0  0  0  0  0  0  0  0  0  0  0  0
  -11.5202  -70.6568  -21.2628 C   0  0  1  0  0  0  0  0  0  0  0  0
  -10.3617  -71.0661  -20.3623 C   0  0  0  0  0  0  0  0  0  0  0  0
  -10.4023  -72.2002  -19.5347 C   0  0  0  0  0  0  0  0  0  0  0  0
   -9.2916  -72.5706  -18.7707 C   0  0  0  0  0  0  0  0  0  0  0  0
   -8.1105  -71.8398  -18.8495 C   0  0  0  0  0  0  0  0  0  0  0  0
   -8.0455  -70.7259  -19.6772 C   0  0  0  0  0  0  0  0  0  0  0  0
   -9.1626  -70.3350  -20.4158 C   0  0  0  0  0  0  0  0  0  0  0  0
  -11.4104  -71.2820  -22.6402 C   0  0  0  0  0  0  0  0  0  0  0  0
  -10.4929  -70.7876  -23.5782 C   0  0  0  0  0  0  0  0  0  0  0  0
  -10.4172  -71.3437  -24.8496 C   0  0  0  0  0  0  0  0  0  0  0  0
  -11.2570  -72.4008  -25.1490 C   0  0  0  0  0  0  0  0  0  0  0  0
  -12.1406  -72.9253  -24.2718 N   0  0  0  0  0  0  0  0  0  0  0  0
  -12.1783  -72.3712  -23.0376 C   0  0  0  0  0  0  0  0  0  0  0  0
  1  2  2  0
  2  3  2  0
  2  4  1  0
  4  5  1  0
  5  6  1  0
  6  7  1  0
  7  8  2  0
  8  9  1  0
  9 10  1  0
  2 11  1  0
 12 11  1  1
 12 13  1  0
 13 14  2  0
 14 15  1  0
 15 16  2  0
 16 17  1  0
 17 18  2  0
 12 19  1  0
 19 20  2  0
 20 21  1  0
 21 22  2  0
 22 23  1  0
 23 24  2  0
 10  6  2  0
 18 13  1  0
 24 19  1  0
M  END
>  <ref_mols>  (51) 
d0174a,d0279a,d0615a

>  <fragmenstein_runtime>  (51) 
[3.679079532623291]

>  <scratch_subdir>  (51) 
['/opt/xchem-fragalysis-2/maxwin/BulkDock/SCRATCH/211010/C1548-P17']

>  <tags>  (51) 
['Fragmenstein placed']

>  <fragmenstein_mode>  (51) 
['expansion']

>  <SLURM_JOB_NAME>  (51) 
BulkDock.place:Flavi_NS5_RdRp:RdRp_knitwork_thumb_site_2_pure_split4000_batch000

>  <HIPPO Pose ID>  (51) 
47098

>  <exports>  (51) 
['/opt/xchem-fragalysis-2/maxwin/BulkDock/OUTPUTS/RdRp_knitwork_thumb_site_2_pure_split4000_batch000_211010.sdf', '/opt/xchem-fragalysis-2/maxwin/BulkDock/OUTPUTS/RdRp_knitwork_thumb_site_2_pure_fragalysis.sdf']

>  <inchikey>  (51) 
HLHAOIDDWWBQNL-KRWDZBQOSA-N

>  <csv_name>  (51) 
RdRp_knitwork_thumb_site_2_pure_split4000_batch000.csv

>  <alias>  (51) 
None

>  <fragmenstein_error>  (51) 
['']

>  <SLURM_JOB_ID>  (51) 
211010

>  <original SMILES>  (51) 
O=S(=O)(CCc1cnoc1)N[C@@H](c1ccccc1)c1cccnc1

>  <name>  (51) 
HLHAOIDDWWBQNL-KRWDZBQOSA-N

>  <ref_pdb>  (51) 
d0174a

>  <original ID>  (51) 
HLHAOIDDWWBQNL-KRWDZBQOSA-N

>  <energy_score>  (51) 
-37.486879

>  <fragmenstein_outcome>  (51) 
['acceptable']

>  <HIPPO Compound ID>  (51) 
1548

>  <distance_score>  (51) 
0.80666

$$$$
47100
     RDKit          3D

 24 26  0  0  0  0  0  0  0  0999 V2000
  -12.7162  -68.6130  -19.8352 O   0  0  0  0  0  0  0  0  0  0  0  0
  -13.7143  -69.5879  -20.1903 S   0  0  0  0  0  0  0  0  0  0  0  0
  -14.5406  -70.2073  -19.1743 O   0  0  0  0  0  0  0  0  0  0  0  0
  -14.7724  -68.8574  -21.4303 C   0  0  0  0  0  0  0  0  0  0  0  0
  -15.4510  -69.8526  -22.3437 C   0  0  0  0  0  0  0  0  0  0  0  0
  -14.8634  -70.0314  -23.6999 C   0  0  0  0  0  0  0  0  0  0  0  0
  -15.3917  -70.8488  -24.7248 C   0  0  0  0  0  0  0  0  0  0  0  0
  -14.6796  -70.7963  -25.8490 N   0  0  0  0  0  0  0  0  0  0  0  0
  -13.6415  -69.9226  -25.5751 O   0  0  0  0  0  0  0  0  0  0  0  0
  -13.7644  -69.4642  -24.3031 C   0  0  0  0  0  0  0  0  0  0  0  0
  -12.9609  -70.8510  -20.9573 N   0  0  0  0  0  0  0  0  0  0  0  0
  -11.5906  -70.6485  -21.4670 C   0  0  1  0  0  0  0  0  0  0  0  0
  -10.4964  -70.9576  -20.4472 C   0  0  0  0  0  0  0  0  0  0  0  0
  -10.6183  -71.9673  -19.4781 C   0  0  0  0  0  0  0  0  0  0  0  0
   -9.5474  -72.2894  -18.6370 C   0  0  0  0  0  0  0  0  0  0  0  0
   -8.3307  -71.6261  -18.7633 C   0  0  0  0  0  0  0  0  0  0  0  0
   -8.1921  -70.6202  -19.7115 C   0  0  0  0  0  0  0  0  0  0  0  0
   -9.2662  -70.2806  -20.5355 C   0  0  0  0  0  0  0  0  0  0  0  0
  -11.3509  -71.4108  -22.7594 C   0  0  0  0  0  0  0  0  0  0  0  0
  -10.4053  -70.9643  -23.6935 C   0  0  0  0  0  0  0  0  0  0  0  0
  -10.2109  -71.6583  -24.8816 C   0  0  0  0  0  0  0  0  0  0  0  0
  -10.9539  -72.8056  -25.0979 C   0  0  0  0  0  0  0  0  0  0  0  0
  -11.8481  -73.2970  -24.2137 N   0  0  0  0  0  0  0  0  0  0  0  0
  -12.0210  -72.5913  -23.0724 C   0  0  0  0  0  0  0  0  0  0  0  0
  1  2  2  0
  2  3  2  0
  2  4  1  0
  4  5  1  0
  5  6  1  0
  6  7  1  0
  7  8  2  0
  8  9  1  0
  9 10  1  0
  2 11  1  0
 12 11  1  1
 12 13  1  0
 13 14  2  0
 14 15  1  0
 15 16  2  0
 16 17  1  0
 17 18  2  0
 12 19  1  0
 19 20  2  0
 20 21  1  0
 21 22  2  0
 22 23  1  0
 23 24  2  0
 10  6  2  0
 18 13  1  0
 24 19  1  0
M  END
>  <ref_mols>  (52) 
d0174a,d0615a

>  <fragmenstein_runtime>  (52) 
[3.0585849285125732]

>  <scratch_subdir>  (52) 
['/opt/xchem-fragalysis-2/maxwin/BulkDock/SCRATCH/211010/C1548-P50']

>  <tags>  (52) 
['Fragmenstein placed']

>  <fragmenstein_mode>  (52) 
['expansion']

>  <SLURM_JOB_NAME>  (52) 
BulkDock.place:Flavi_NS5_RdRp:RdRp_knitwork_thumb_site_2_pure_split4000_batch000

>  <HIPPO Pose ID>  (52) 
47100

>  <exports>  (52) 
['/opt/xchem-fragalysis-2/maxwin/BulkDock/OUTPUTS/RdRp_knitwork_thumb_site_2_pure_split4000_batch000_211010.sdf', '/opt/xchem-fragalysis-2/maxwin/BulkDock/OUTPUTS/RdRp_knitwork_thumb_site_2_pure_fragalysis.sdf']

>  <inchikey>  (52) 
HLHAOIDDWWBQNL-KRWDZBQOSA-N

>  <csv_name>  (52) 
RdRp_knitwork_thumb_site_2_pure_split4000_batch000.csv

>  <alias>  (52) 
None

>  <fragmenstein_error>  (52) 
['']

>  <SLURM_JOB_ID>  (52) 
211010

>  <original SMILES>  (52) 
O=S(=O)(CCc1cnoc1)N[C@@H](c1ccccc1)c1cccnc1

>  <name>  (52) 
HLHAOIDDWWBQNL-KRWDZBQOSA-N

>  <ref_pdb>  (52) 
d0615a

>  <original ID>  (52) 
HLHAOIDDWWBQNL-KRWDZBQOSA-N

>  <energy_score>  (52) 
-30.580906

>  <fragmenstein_outcome>  (52) 
['acceptable']

>  <HIPPO Compound ID>  (52) 
1548

>  <distance_score>  (52) 
0.814399

$$$$
47294
     RDKit          3D

 22 23  0  0  0  0  0  0  0  0999 V2000
  -10.8609  -70.9346  -25.3140 C   0  0  0  0  0  0  0  0  0  0  0  0
  -10.6126  -70.8244  -23.8303 C   0  0  0  0  0  0  0  0  0  0  0  0
  -12.1340  -70.6172  -22.9073 S   0  0  0  0  0  0  0  0  0  0  0  0
  -12.8273  -69.4683  -23.4460 O   0  0  0  0  0  0  0  0  0  0  0  0
  -12.7968  -71.8994  -22.7951 O   0  0  0  0  0  0  0  0  0  0  0  0
  -11.6144  -70.1841  -21.3182 N   0  0  0  0  0  0  0  0  0  0  0  0
  -12.7527  -69.6535  -20.5171 C   0  0  0  0  0  0  0  0  0  0  0  0
  -10.7358  -71.1958  -20.6145 C   0  0  0  0  0  0  0  0  0  0  0  0
  -10.8350  -71.1689  -19.0755 C   0  0  0  0  0  0  0  0  0  0  0  0
   -9.6408  -71.8592  -18.4203 C   0  0  0  0  0  0  0  0  0  0  0  0
   -8.3667  -71.2802  -18.8414 N   0  0  0  0  0  0  0  0  0  0  0  0
   -7.2167  -71.6187  -18.1461 C   0  0  0  0  0  0  0  0  0  0  0  0
   -7.2690  -72.3031  -17.1224 O   0  0  0  0  0  0  0  0  0  0  0  0
   -5.8835  -71.1018  -18.6645 C   0  0  0  0  0  0  0  0  0  0  0  0
   -5.3619  -71.7633  -19.9133 C   0  0  0  0  0  0  0  0  0  0  0  0
   -4.1471  -71.3288  -20.4591 C   0  0  0  0  0  0  0  0  0  0  0  0
   -3.6102  -71.9754  -21.5680 C   0  0  0  0  0  0  0  0  0  0  0  0
   -4.3154  -73.0337  -22.1113 C   0  0  0  0  0  0  0  0  0  0  0  0
   -5.5026  -73.4633  -21.6355 N   0  0  0  0  0  0  0  0  0  0  0  0
   -5.9892  -72.8360  -20.5413 C   0  0  0  0  0  0  0  0  0  0  0  0
   -8.4020  -70.4113  -20.0028 C   0  0  0  0  0  0  0  0  0  0  0  0
   -9.2821  -70.9874  -21.0766 C   0  0  0  0  0  0  0  0  0  0  0  0
  1  2  1  0
  2  3  1  0
  3  4  2  0
  3  5  2  0
  3  6  1  0
  6  7  1  0
  6  8  1  0
  8  9  1  0
  9 10  1  0
 10 11  1  0
 11 12  1  0
 12 13  2  0
 12 14  1  0
 14 15  1  0
 15 16  2  0
 16 17  1  0
 17 18  2  0
 18 19  1  0
 19 20  2  0
 11 21  1  0
 21 22  1  0
 22  8  1  0
 20 15  1  0
M  END
>  <ref_mols>  (53) 
d0174a,d0615a

>  <fragmenstein_runtime>  (53) 
[5.592968940734863]

>  <scratch_subdir>  (53) 
['/opt/xchem-fragalysis-2/maxwin/BulkDock/SCRATCH/211010/C1237-P17']

>  <tags>  (53) 
['Fragmenstein placed']

>  <fragmenstein_mode>  (53) 
['expansion']

>  <SLURM_JOB_NAME>  (53) 
BulkDock.place:Flavi_NS5_RdRp:RdRp_knitwork_thumb_site_2_pure_split4000_batch000

>  <HIPPO Pose ID>  (53) 
47294

>  <exports>  (53) 
['/opt/xchem-fragalysis-2/maxwin/BulkDock/OUTPUTS/RdRp_knitwork_thumb_site_2_pure_split4000_batch000_211010.sdf', '/opt/xchem-fragalysis-2/maxwin/BulkDock/OUTPUTS/RdRp_knitwork_thumb_site_2_pure_fragalysis.sdf']

>  <inchikey>  (53) 
KSAGREYJOMINST-UHFFFAOYSA-N

>  <csv_name>  (53) 
RdRp_knitwork_thumb_site_2_pure_split4000_batch000.csv

>  <alias>  (53) 
None

>  <fragmenstein_error>  (53) 
['']

>  <SLURM_JOB_ID>  (53) 
211010

>  <original SMILES>  (53) 
CCS(=O)(=O)N(C)C1CCN(C(=O)Cc2cccnc2)CC1

>  <name>  (53) 
KSAGREYJOMINST-UHFFFAOYSA-N

>  <ref_pdb>  (53) 
d0174a

>  <original ID>  (53) 
KSAGREYJOMINST-UHFFFAOYSA-N

>  <energy_score>  (53) 
-50.603277

>  <fragmenstein_outcome>  (53) 
['acceptable']

>  <HIPPO Compound ID>  (53) 
1237

>  <distance_score>  (53) 
0.948254

$$$$
47371
     RDKit          3D

 23 24  0  0  0  0  0  0  0  0999 V2000
  -14.6803  -69.3848  -22.7614 C   0  0  0  0  0  0  0  0  0  0  0  0
  -15.1748  -69.6864  -21.3613 C   0  0  0  0  0  0  0  0  0  0  0  0
  -13.8580  -69.7879  -20.1540 S   0  0  0  0  0  0  0  0  0  0  0  0
  -13.1037  -68.5600  -20.1639 O   0  0  0  0  0  0  0  0  0  0  0  0
  -14.4019  -70.3118  -18.9165 O   0  0  0  0  0  0  0  0  0  0  0  0
  -12.8998  -71.0121  -20.7618 N   0  0  0  0  0  0  0  0  0  0  0  0
  -11.6333  -70.6604  -21.4180 C   0  0  0  0  0  0  0  0  0  0  0  0
  -10.4145  -70.8791  -20.5505 C   0  0  0  0  0  0  0  0  0  0  0  0
  -10.4551  -70.7575  -19.1557 C   0  0  0  0  0  0  0  0  0  0  0  0
   -9.3377  -71.0778  -18.3807 C   0  0  0  0  0  0  0  0  0  0  0  0
   -8.1399  -71.4897  -18.9809 C   0  0  0  0  0  0  0  0  0  0  0  0
   -7.1031  -72.0979  -18.1008 C   0  0  0  0  0  0  0  0  0  0  0  0
   -7.5245  -72.6094  -17.0581 O   0  0  0  0  0  0  0  0  0  0  0  0
   -5.7392  -72.0585  -18.3891 N   0  0  0  0  0  0  0  0  0  0  0  0
   -4.8158  -72.7859  -17.5103 C   0  0  0  0  0  0  0  0  0  0  0  0
   -5.1218  -71.3834  -19.4553 C   0  0  0  0  0  0  0  0  0  0  0  0
   -5.0215  -69.9945  -19.4259 C   0  0  0  0  0  0  0  0  0  0  0  0
   -4.1516  -69.3633  -20.3097 C   0  0  0  0  0  0  0  0  0  0  0  0
   -3.4551  -70.1425  -21.2179 C   0  0  0  0  0  0  0  0  0  0  0  0
   -3.5726  -71.4856  -21.3107 N   0  0  0  0  0  0  0  0  0  0  0  0
   -4.3797  -72.0785  -20.4066 C   0  0  0  0  0  0  0  0  0  0  0  0
   -8.0778  -71.5523  -20.3752 C   0  0  0  0  0  0  0  0  0  0  0  0
   -9.1975  -71.2294  -21.1512 C   0  0  0  0  0  0  0  0  0  0  0  0
  1  2  1  0
  2  3  1  0
  3  4  2  0
  3  5  2  0
  3  6  1  0
  6  7  1  0
  7  8  1  0
  8  9  2  0
  9 10  1  0
 10 11  2  0
 11 12  1  0
 12 13  2  0
 12 14  1  0
 14 15  1  0
 14 16  1  0
 16 17  2  0
 17 18  1  0
 18 19  2  0
 19 20  1  0
 20 21  2  0
 11 22  1  0
 22 23  2  0
 23  8  1  0
 21 16  1  0
M  END
>  <ref_mols>  (54) 
d0174a,d0615a

>  <fragmenstein_runtime>  (54) 
[3.8038058280944824]

>  <scratch_subdir>  (54) 
['/opt/xchem-fragalysis-2/maxwin/BulkDock/SCRATCH/211010/C800-P50']

>  <tags>  (54) 
['Fragmenstein placed']

>  <fragmenstein_mode>  (54) 
['expansion']

>  <SLURM_JOB_NAME>  (54) 
BulkDock.place:Flavi_NS5_RdRp:RdRp_knitwork_thumb_site_2_pure_split4000_batch000

>  <HIPPO Pose ID>  (54) 
47371

>  <exports>  (54) 
['/opt/xchem-fragalysis-2/maxwin/BulkDock/OUTPUTS/RdRp_knitwork_thumb_site_2_pure_split4000_batch000_211010.sdf', '/opt/xchem-fragalysis-2/maxwin/BulkDock/OUTPUTS/RdRp_knitwork_thumb_site_2_pure_fragalysis.sdf']

>  <inchikey>  (54) 
OTAWBXNMCJCGPW-UHFFFAOYSA-N

>  <csv_name>  (54) 
RdRp_knitwork_thumb_site_2_pure_split4000_batch000.csv

>  <alias>  (54) 
None

>  <fragmenstein_error>  (54) 
['']

>  <SLURM_JOB_ID>  (54) 
211010

>  <original SMILES>  (54) 
CCS(=O)(=O)NCc1ccc(C(=O)N(C)c2cccnc2)cc1

>  <name>  (54) 
OTAWBXNMCJCGPW-UHFFFAOYSA-N

>  <ref_pdb>  (54) 
d0615a

>  <original ID>  (54) 
OTAWBXNMCJCGPW-UHFFFAOYSA-N

>  <energy_score>  (54) 
-61.418536

>  <fragmenstein_outcome>  (54) 
['acceptable']

>  <HIPPO Compound ID>  (54) 
800

>  <distance_score>  (54) 
0.920242

$$$$
47483
     RDKit          3D

 22 24  0  0  0  0  0  0  0  0999 V2000
  -13.1706  -68.5883  -20.4918 O   0  0  0  0  0  0  0  0  0  0  0  0
  -13.8005  -69.8710  -20.3140 S   0  0  0  0  0  0  0  0  0  0  0  0
  -14.3611  -70.2568  -19.0313 O   0  0  0  0  0  0  0  0  0  0  0  0
  -15.0757  -70.0909  -21.5562 C   0  0  0  0  0  0  0  0  0  0  0  0
  -14.5986  -69.8999  -22.9959 C   0  0  0  0  0  0  0  0  0  0  0  0
  -15.5799  -70.4909  -24.0425 C   0  0  0  0  0  0  0  0  0  0  0  0
  -14.9820  -70.4140  -25.4572 C   0  0  0  0  0  0  0  0  0  0  0  0
  -15.9881  -70.5864  -26.6030 C   0  0  0  0  0  0  0  0  0  0  0  0
  -17.3451  -70.6460  -26.1608 O   0  0  0  0  0  0  0  0  0  0  0  0
  -17.6280  -69.5799  -25.2833 C   0  0  0  0  0  0  0  0  0  0  0  0
  -16.9757  -69.8586  -23.9392 C   0  0  0  0  0  0  0  0  0  0  0  0
  -12.7333  -71.0858  -20.7064 N   0  0  0  0  0  0  0  0  0  0  0  0
  -11.3917  -70.7706  -21.2211 C   0  0  1  0  0  0  0  0  0  0  0  0
  -10.2820  -71.0532  -20.2298 C   0  0  0  0  0  0  0  0  0  0  0  0
  -10.3392  -72.0460  -19.2445 C   0  0  0  0  0  0  0  0  0  0  0  0
   -9.2273  -72.3025  -18.4442 C   0  0  0  0  0  0  0  0  0  0  0  0
   -8.0748  -71.5718  -18.6646 C   0  0  0  0  0  0  0  0  0  0  0  0
   -7.9747  -70.6058  -19.5966 N   0  0  0  0  0  0  0  0  0  0  0  0
   -9.0754  -70.3613  -20.3446 C   0  0  0  0  0  0  0  0  0  0  0  0
  -11.1984  -71.5623  -22.5024 C   0  0  0  0  0  0  0  0  0  0  0  0
  -10.4323  -70.9337  -23.6487 C   0  0  0  0  0  0  0  0  0  0  0  0
   -9.8861  -72.1565  -22.9818 C   0  0  0  0  0  0  0  0  0  0  0  0
  1  2  2  0
  2  3  2  0
  2  4  1  0
  4  5  1  0
  5  6  1  0
  6  7  1  0
  7  8  1  0
  8  9  1  0
  9 10  1  0
 10 11  1  0
  2 12  1  0
 13 12  1  1
 13 14  1  0
 14 15  2  0
 15 16  1  0
 16 17  2  0
 17 18  1  0
 18 19  2  0
 13 20  1  0
 20 21  1  0
 21 22  1  0
 11  6  1  0
 19 14  1  0
 22 20  1  0
M  END
>  <ref_mols>  (55) 
d0174a,d0615a

>  <fragmenstein_runtime>  (55) 
[6.578301668167114]

>  <scratch_subdir>  (55) 
['/opt/xchem-fragalysis-2/maxwin/BulkDock/SCRATCH/211010/C1797-P17']

>  <tags>  (55) 
['Fragmenstein placed']

>  <fragmenstein_mode>  (55) 
['expansion']

>  <SLURM_JOB_NAME>  (55) 
BulkDock.place:Flavi_NS5_RdRp:RdRp_knitwork_thumb_site_2_pure_split4000_batch000

>  <HIPPO Pose ID>  (55) 
47483

>  <exports>  (55) 
['/opt/xchem-fragalysis-2/maxwin/BulkDock/OUTPUTS/RdRp_knitwork_thumb_site_2_pure_split4000_batch000_211010.sdf', '/opt/xchem-fragalysis-2/maxwin/BulkDock/OUTPUTS/RdRp_knitwork_thumb_site_2_pure_fragalysis.sdf']

>  <inchikey>  (55) 
FPVCSHIWIRRTQF-MRXNPFEDSA-N

>  <csv_name>  (55) 
RdRp_knitwork_thumb_site_2_pure_split4000_batch000.csv

>  <alias>  (55) 
None

>  <fragmenstein_error>  (55) 
['']

>  <SLURM_JOB_ID>  (55) 
211010

>  <original SMILES>  (55) 
O=S(=O)(CCC1CCOCC1)N[C@@H](c1cccnc1)C1CC1

>  <name>  (55) 
FPVCSHIWIRRTQF-MRXNPFEDSA-N

>  <ref_pdb>  (55) 
d0174a

>  <original ID>  (55) 
FPVCSHIWIRRTQF-MRXNPFEDSA-N

>  <energy_score>  (55) 
-72.519464

>  <fragmenstein_outcome>  (55) 
['acceptable']

>  <HIPPO Compound ID>  (55) 
1797

>  <distance_score>  (55) 
0.807023

$$$$
47489
     RDKit          3D

 22 24  0  0  0  0  0  0  0  0999 V2000
  -13.0565  -68.6013  -20.1535 O   0  0  0  0  0  0  0  0  0  0  0  0
  -13.7249  -69.8762  -20.1169 S   0  0  0  0  0  0  0  0  0  0  0  0
  -14.3294  -70.3698  -18.8941 O   0  0  0  0  0  0  0  0  0  0  0  0
  -14.9633  -69.9365  -21.4111 C   0  0  0  0  0  0  0  0  0  0  0  0
  -14.4072  -69.5967  -22.7911 C   0  0  0  0  0  0  0  0  0  0  0  0
  -15.0598  -70.4225  -23.9174 C   0  0  0  0  0  0  0  0  0  0  0  0
  -14.2869  -70.2261  -25.2267 C   0  0  0  0  0  0  0  0  0  0  0  0
  -15.0102  -70.7312  -26.4724 C   0  0  0  0  0  0  0  0  0  0  0  0
  -16.3894  -71.0099  -26.2598 O   0  0  0  0  0  0  0  0  0  0  0  0
  -17.0358  -70.0286  -25.4838 C   0  0  0  0  0  0  0  0  0  0  0  0
  -16.5597  -70.1150  -24.0446 C   0  0  0  0  0  0  0  0  0  0  0  0
  -12.6753  -71.0732  -20.6021 N   0  0  0  0  0  0  0  0  0  0  0  0
  -11.3565  -70.7350  -21.1564 C   0  0  1  0  0  0  0  0  0  0  0  0
  -10.2176  -71.0078  -20.1966 C   0  0  0  0  0  0  0  0  0  0  0  0
  -10.2516  -71.9921  -19.2012 C   0  0  0  0  0  0  0  0  0  0  0  0
   -9.1228  -72.2399  -18.4230 C   0  0  0  0  0  0  0  0  0  0  0  0
   -7.9778  -71.5069  -18.6732 C   0  0  0  0  0  0  0  0  0  0  0  0
   -7.9001  -70.5468  -19.6139 N   0  0  0  0  0  0  0  0  0  0  0  0
   -9.0168  -70.3117  -20.3412 C   0  0  0  0  0  0  0  0  0  0  0  0
  -11.1984  -71.4997  -22.4590 C   0  0  0  0  0  0  0  0  0  0  0  0
  -10.3151  -70.9365  -23.5547 C   0  0  0  0  0  0  0  0  0  0  0  0
   -9.9457  -72.2321  -22.9024 C   0  0  0  0  0  0  0  0  0  0  0  0
  1  2  2  0
  2  3  2  0
  2  4  1  0
  4  5  1  0
  5  6  1  0
  6  7  1  0
  7  8  1  0
  8  9  1  0
  9 10  1  0
 10 11  1  0
  2 12  1  0
 13 12  1  1
 13 14  1  0
 14 15  2  0
 15 16  1  0
 16 17  2  0
 17 18  1  0
 18 19  2  0
 13 20  1  0
 20 21  1  0
 21 22  1  0
 11  6  1  0
 19 14  1  0
 22 20  1  0
M  END
>  <ref_mols>  (56) 
d0174a,d0615a

>  <fragmenstein_runtime>  (56) 
[6.7079901695251465]

>  <scratch_subdir>  (56) 
['/opt/xchem-fragalysis-2/maxwin/BulkDock/SCRATCH/211010/C1797-P50']

>  <tags>  (56) 
['Fragmenstein placed']

>  <fragmenstein_mode>  (56) 
['expansion']

>  <SLURM_JOB_NAME>  (56) 
BulkDock.place:Flavi_NS5_RdRp:RdRp_knitwork_thumb_site_2_pure_split4000_batch000

>  <HIPPO Pose ID>  (56) 
47489

>  <exports>  (56) 
['/opt/xchem-fragalysis-2/maxwin/BulkDock/OUTPUTS/RdRp_knitwork_thumb_site_2_pure_split4000_batch000_211010.sdf', '/opt/xchem-fragalysis-2/maxwin/BulkDock/OUTPUTS/RdRp_knitwork_thumb_site_2_pure_fragalysis.sdf']

>  <inchikey>  (56) 
FPVCSHIWIRRTQF-MRXNPFEDSA-N

>  <csv_name>  (56) 
RdRp_knitwork_thumb_site_2_pure_split4000_batch000.csv

>  <alias>  (56) 
None

>  <fragmenstein_error>  (56) 
['']

>  <SLURM_JOB_ID>  (56) 
211010

>  <original SMILES>  (56) 
O=S(=O)(CCC1CCOCC1)N[C@@H](c1cccnc1)C1CC1

>  <name>  (56) 
FPVCSHIWIRRTQF-MRXNPFEDSA-N

>  <ref_pdb>  (56) 
d0615a

>  <original ID>  (56) 
FPVCSHIWIRRTQF-MRXNPFEDSA-N

>  <energy_score>  (56) 
-72.648806

>  <fragmenstein_outcome>  (56) 
['acceptable']

>  <HIPPO Compound ID>  (56) 
1797

>  <distance_score>  (56) 
0.806785

$$$$
47538
     RDKit          3D

 21 22  0  0  0  0  0  0  0  0999 V2000
  -15.1122  -69.3677  -22.6347 C   0  0  0  0  0  0  0  0  0  0  0  0
  -15.3271  -69.7911  -21.2012 C   0  0  0  0  0  0  0  0  0  0  0  0
  -13.8449  -69.8389  -20.2125 S   0  0  0  0  0  0  0  0  0  0  0  0
  -13.2300  -68.5364  -20.2562 O   0  0  0  0  0  0  0  0  0  0  0  0
  -14.1890  -70.4544  -18.9456 O   0  0  0  0  0  0  0  0  0  0  0  0
  -12.8974  -70.9353  -21.0405 N   0  0  0  0  0  0  0  0  0  0  0  0
  -11.5223  -70.5331  -21.4070 C   0  0  2  0  0  0  0  0  0  0  0  0
  -11.2462  -70.9359  -22.8482 C   0  0  0  0  0  0  0  0  0  0  0  0
  -10.3432  -71.9282  -23.2316 C   0  0  0  0  0  0  0  0  0  0  0  0
  -10.0961  -72.1637  -24.5830 C   0  0  0  0  0  0  0  0  0  0  0  0
  -10.8033  -71.4416  -25.5252 C   0  0  0  0  0  0  0  0  0  0  0  0
  -11.7203  -70.5127  -25.2027 N   0  0  0  0  0  0  0  0  0  0  0  0
  -11.8942  -70.2663  -23.8859 C   0  0  0  0  0  0  0  0  0  0  0  0
  -10.4429  -70.9406  -20.3978 C   0  0  0  0  0  0  0  0  0  0  0  0
  -10.7014  -71.7223  -19.2632 C   0  0  0  0  0  0  0  0  0  0  0  0
   -9.6650  -72.0943  -18.4018 C   0  0  0  0  0  0  0  0  0  0  0  0
   -8.3516  -71.6966  -18.6559 C   0  0  0  0  0  0  0  0  0  0  0  0
   -8.0693  -70.9024  -19.7630 C   0  0  0  0  0  0  0  0  0  0  0  0
   -6.8345  -70.4447  -20.1280 O   0  0  0  0  0  0  0  0  0  0  0  0
   -5.7306  -70.8728  -19.3419 C   0  0  0  0  0  0  0  0  0  0  0  0
   -9.1134  -70.5113  -20.6072 C   0  0  0  0  0  0  0  0  0  0  0  0
  1  2  1  0
  2  3  1  0
  3  4  2  0
  3  5  2  0
  3  6  1  0
  7  6  1  1
  7  8  1  0
  8  9  2  0
  9 10  1  0
 10 11  2  0
 11 12  1  0
 12 13  2  0
  7 14  1  0
 14 15  2  0
 15 16  1  0
 16 17  2  0
 17 18  1  0
 18 19  1  0
 19 20  1  0
 18 21  2  0
 13  8  1  0
 21 14  1  0
M  END
>  <ref_mols>  (57) 
d0174a,d0615a

>  <fragmenstein_runtime>  (57) 
[3.5061304569244385]

>  <scratch_subdir>  (57) 
['/opt/xchem-fragalysis-2/maxwin/BulkDock/SCRATCH/211010/C1947-P17']

>  <tags>  (57) 
['Fragmenstein placed']

>  <fragmenstein_mode>  (57) 
['expansion']

>  <SLURM_JOB_NAME>  (57) 
BulkDock.place:Flavi_NS5_RdRp:RdRp_knitwork_thumb_site_2_pure_split4000_batch000

>  <HIPPO Pose ID>  (57) 
47538

>  <exports>  (57) 
['/opt/xchem-fragalysis-2/maxwin/BulkDock/OUTPUTS/RdRp_knitwork_thumb_site_2_pure_split4000_batch000_211010.sdf', '/opt/xchem-fragalysis-2/maxwin/BulkDock/OUTPUTS/RdRp_knitwork_thumb_site_2_pure_fragalysis.sdf']

>  <inchikey>  (57) 
MAFQZBADWZJFCB-HNNXBMFYSA-N

>  <csv_name>  (57) 
RdRp_knitwork_thumb_site_2_pure_split4000_batch000.csv

>  <alias>  (57) 
None

>  <fragmenstein_error>  (57) 
['']

>  <SLURM_JOB_ID>  (57) 
211010

>  <original SMILES>  (57) 
CCS(=O)(=O)N[C@H](c1cccnc1)c1cccc(OC)c1

>  <name>  (57) 
MAFQZBADWZJFCB-HNNXBMFYSA-N

>  <ref_pdb>  (57) 
d0174a

>  <original ID>  (57) 
MAFQZBADWZJFCB-HNNXBMFYSA-N

>  <energy_score>  (57) 
-32.507332

>  <fragmenstein_outcome>  (57) 
['acceptable']

>  <HIPPO Compound ID>  (57) 
1947

>  <distance_score>  (57) 
0.870281

$$$$
47539
     RDKit          3D

 21 22  0  0  0  0  0  0  0  0999 V2000
  -15.1454  -69.3625  -22.5593 C   0  0  0  0  0  0  0  0  0  0  0  0
  -15.3653  -69.7779  -21.1227 C   0  0  0  0  0  0  0  0  0  0  0  0
  -13.8683  -69.8691  -20.1511 S   0  0  0  0  0  0  0  0  0  0  0  0
  -13.2567  -68.5640  -20.1413 O   0  0  0  0  0  0  0  0  0  0  0  0
  -14.1822  -70.5507  -18.9101 O   0  0  0  0  0  0  0  0  0  0  0  0
  -12.9223  -70.9208  -21.0421 N   0  0  0  0  0  0  0  0  0  0  0  0
  -11.5503  -70.4946  -21.3930 C   0  0  2  0  0  0  0  0  0  0  0  0
  -11.2567  -70.8592  -22.8419 C   0  0  0  0  0  0  0  0  0  0  0  0
  -10.3307  -71.8256  -23.2402 C   0  0  0  0  0  0  0  0  0  0  0  0
  -10.0556  -72.0147  -24.5933 C   0  0  0  0  0  0  0  0  0  0  0  0
  -10.7590  -71.2744  -25.5241 C   0  0  0  0  0  0  0  0  0  0  0  0
  -11.6961  -70.3703  -25.1891 N   0  0  0  0  0  0  0  0  0  0  0  0
  -11.9006  -70.1687  -23.8693 C   0  0  0  0  0  0  0  0  0  0  0  0
  -10.4688  -70.9093  -20.3872 C   0  0  0  0  0  0  0  0  0  0  0  0
  -10.7237  -71.7184  -19.2709 C   0  0  0  0  0  0  0  0  0  0  0  0
   -9.6876  -72.0994  -18.4128 C   0  0  0  0  0  0  0  0  0  0  0  0
   -8.3767  -71.6861  -18.6534 C   0  0  0  0  0  0  0  0  0  0  0  0
   -8.0973  -70.8668  -19.7424 C   0  0  0  0  0  0  0  0  0  0  0  0
   -6.8641  -70.3962  -20.0950 O   0  0  0  0  0  0  0  0  0  0  0  0
   -5.7558  -70.8516  -19.3308 C   0  0  0  0  0  0  0  0  0  0  0  0
   -9.1420  -70.4634  -20.5809 C   0  0  0  0  0  0  0  0  0  0  0  0
  1  2  1  0
  2  3  1  0
  3  4  2  0
  3  5  2  0
  3  6  1  0
  7  6  1  1
  7  8  1  0
  8  9  2  0
  9 10  1  0
 10 11  2  0
 11 12  1  0
 12 13  2  0
  7 14  1  0
 14 15  2  0
 15 16  1  0
 16 17  2  0
 17 18  1  0
 18 19  1  0
 19 20  1  0
 18 21  2  0
 13  8  1  0
 21 14  1  0
M  END
>  <ref_mols>  (58) 
d0174a,d0615a

>  <fragmenstein_runtime>  (58) 
[3.4102535247802734]

>  <scratch_subdir>  (58) 
['/opt/xchem-fragalysis-2/maxwin/BulkDock/SCRATCH/211010/C1947-P50']

>  <tags>  (58) 
['Fragmenstein placed']

>  <fragmenstein_mode>  (58) 
['expansion']

>  <SLURM_JOB_NAME>  (58) 
BulkDock.place:Flavi_NS5_RdRp:RdRp_knitwork_thumb_site_2_pure_split4000_batch000

>  <HIPPO Pose ID>  (58) 
47539

>  <exports>  (58) 
['/opt/xchem-fragalysis-2/maxwin/BulkDock/OUTPUTS/RdRp_knitwork_thumb_site_2_pure_split4000_batch000_211010.sdf', '/opt/xchem-fragalysis-2/maxwin/BulkDock/OUTPUTS/RdRp_knitwork_thumb_site_2_pure_fragalysis.sdf']

>  <inchikey>  (58) 
MAFQZBADWZJFCB-HNNXBMFYSA-N

>  <csv_name>  (58) 
RdRp_knitwork_thumb_site_2_pure_split4000_batch000.csv

>  <alias>  (58) 
None

>  <fragmenstein_error>  (58) 
['']

>  <SLURM_JOB_ID>  (58) 
211010

>  <original SMILES>  (58) 
CCS(=O)(=O)N[C@H](c1cccnc1)c1cccc(OC)c1

>  <name>  (58) 
MAFQZBADWZJFCB-HNNXBMFYSA-N

>  <ref_pdb>  (58) 
d0615a

>  <original ID>  (58) 
MAFQZBADWZJFCB-HNNXBMFYSA-N

>  <energy_score>  (58) 
-32.799125

>  <fragmenstein_outcome>  (58) 
['acceptable']

>  <HIPPO Compound ID>  (58) 
1947

>  <distance_score>  (58) 
0.880982

$$$$
48009
     RDKit          3D

 18 19  0  0  0  0  0  0  0  0999 V2000
  -14.6703  -69.2999  -22.9966 C   0  0  0  0  0  0  0  0  0  0  0  0
  -14.2653  -70.7300  -22.6132 C   0  0  0  0  0  0  0  0  0  0  0  0
  -15.4292  -71.3177  -21.8034 C   0  0  0  0  0  0  0  0  0  0  0  0
  -14.0675  -71.6058  -23.8706 C   0  0  0  0  0  0  0  0  0  0  0  0
  -13.1380  -71.0959  -24.8112 O   0  0  0  0  0  0  0  0  0  0  0  0
  -13.0673  -70.7582  -21.7439 N   0  0  0  0  0  0  0  0  0  0  0  0
  -12.0306  -69.7063  -21.8899 C   0  0  0  0  0  0  0  0  0  0  0  0
  -11.7559  -69.7759  -23.1061 O   0  0  0  0  0  0  0  0  0  0  0  0
  -11.3375  -70.4907  -20.8017 C   0  0  0  0  0  0  0  0  0  0  0  0
  -11.4679  -70.2223  -19.4477 C   0  0  0  0  0  0  0  0  0  0  0  0
  -10.1863  -70.9640  -18.5795 S   0  0  0  0  0  0  0  0  0  0  0  0
   -9.5254  -71.5036  -20.0619 C   0  0  0  0  0  0  0  0  0  0  0  0
   -8.1030  -72.1080  -20.2628 C   0  0  0  0  0  0  0  0  0  0  0  0
   -7.6713  -72.6699  -21.5013 C   0  0  0  0  0  0  0  0  0  0  0  0
   -6.3701  -73.1077  -21.4448 C   0  0  0  0  0  0  0  0  0  0  0  0
   -5.6577  -72.7883  -19.9240 S   0  0  0  0  0  0  0  0  0  0  0  0
   -7.1117  -72.1242  -19.3115 C   0  0  0  0  0  0  0  0  0  0  0  0
  -10.2872  -71.3322  -21.1164 N   0  0  0  0  0  0  0  0  0  0  0  0
  1  2  1  0
  2  3  1  0
  2  4  1  0
  4  5  1  0
  2  6  1  0
  6  7  1  0
  7  8  2  0
  7  9  1  0
  9 10  2  0
 10 11  1  0
 11 12  1  0
 12 13  1  0
 13 14  1  0
 14 15  2  0
 15 16  1  0
 16 17  1  0
 12 18  2  0
 18  9  1  0
 17 13  2  0
M  END
>  <ref_mols>  (59) 
d0248a,d0376a

>  <fragmenstein_runtime>  (59) 
[4.153818368911743]

>  <scratch_subdir>  (59) 
['/opt/xchem-fragalysis-2/maxwin/BulkDock/SCRATCH/211010/C1443-P33']

>  <tags>  (59) 
['Fragmenstein placed']

>  <fragmenstein_mode>  (59) 
['expansion']

>  <SLURM_JOB_NAME>  (59) 
BulkDock.place:Flavi_NS5_RdRp:RdRp_knitwork_thumb_site_2_pure_split4000_batch000

>  <HIPPO Pose ID>  (59) 
48009

>  <exports>  (59) 
['/opt/xchem-fragalysis-2/maxwin/BulkDock/OUTPUTS/RdRp_knitwork_thumb_site_2_pure_split4000_batch000_211010.sdf', '/opt/xchem-fragalysis-2/maxwin/BulkDock/OUTPUTS/RdRp_knitwork_thumb_site_2_pure_fragalysis.sdf']

>  <inchikey>  (59) 
IQFFGYDSWILZBZ-UHFFFAOYSA-N

>  <csv_name>  (59) 
RdRp_knitwork_thumb_site_2_pure_split4000_batch000.csv

>  <alias>  (59) 
None

>  <fragmenstein_error>  (59) 
['']

>  <SLURM_JOB_ID>  (59) 
211010

>  <original SMILES>  (59) 
CC(C)(CO)NC(=O)c1csc(-c2ccsc2)n1

>  <name>  (59) 
IQFFGYDSWILZBZ-UHFFFAOYSA-N

>  <ref_pdb>  (59) 
d0376a

>  <original ID>  (59) 
IQFFGYDSWILZBZ-UHFFFAOYSA-N

>  <energy_score>  (59) 
-6.451584

>  <fragmenstein_outcome>  (59) 
['acceptable']

>  <HIPPO Compound ID>  (59) 
1443

>  <distance_score>  (59) 
0.806872

$$$$
48044
     RDKit          3D

 21 22  0  0  0  0  0  0  0  0999 V2000
  -13.9171  -69.3506  -23.1723 C   0  0  0  0  0  0  0  0  0  0  0  0
  -13.7375  -70.7865  -22.6372 C   0  0  0  0  0  0  0  0  0  0  0  0
  -14.9919  -71.1179  -21.7956 C   0  0  0  0  0  0  0  0  0  0  0  0
  -13.6768  -71.8130  -23.8001 C   0  0  0  0  0  0  0  0  0  0  0  0
  -12.7350  -71.4746  -24.8057 O   0  0  0  0  0  0  0  0  0  0  0  0
  -12.5473  -70.8936  -21.7179 N   0  0  0  0  0  0  0  0  0  0  0  0
  -11.2728  -70.1072  -21.9512 C   0  0  0  0  0  0  0  0  0  0  0  0
  -11.0542  -70.4959  -23.1182 O   0  0  0  0  0  0  0  0  0  0  0  0
  -10.8116  -70.6989  -20.6105 C   0  0  0  0  0  0  0  0  0  0  0  0
  -11.4419  -70.4042  -19.3974 C   0  0  0  0  0  0  0  0  0  0  0  0
  -10.6613  -71.0639  -18.0374 S   0  0  0  0  0  0  0  0  0  0  0  0
   -9.3145  -71.5158  -18.9747 C   0  0  0  0  0  0  0  0  0  0  0  0
   -9.4803  -71.2515  -20.3186 C   0  0  0  0  0  0  0  0  0  0  0  0
   -8.4733  -71.3657  -21.2315 O   0  0  0  0  0  0  0  0  0  0  0  0
   -7.3638  -72.2317  -20.9090 C   0  0  0  0  0  0  0  0  0  0  0  0
   -6.0681  -71.5173  -20.5588 C   0  0  0  0  0  0  0  0  0  0  0  0
   -6.0419  -70.1814  -20.1505 C   0  0  0  0  0  0  0  0  0  0  0  0
   -4.8286  -69.5142  -19.9725 C   0  0  0  0  0  0  0  0  0  0  0  0
   -3.6192  -70.1788  -20.1588 C   0  0  0  0  0  0  0  0  0  0  0  0
   -3.6255  -71.5224  -20.5151 C   0  0  0  0  0  0  0  0  0  0  0  0
   -4.8403  -72.1888  -20.7079 C   0  0  0  0  0  0  0  0  0  0  0  0
  1  2  1  0
  2  3  1  0
  2  4  1  0
  4  5  1  0
  2  6  1  0
  6  7  1  0
  7  8  2  0
  7  9  1  0
  9 10  2  0
 10 11  1  0
 11 12  1  0
 12 13  2  0
 13 14  1  0
 14 15  1  0
 15 16  1  0
 16 17  2  0
 17 18  1  0
 18 19  2  0
 19 20  1  0
 20 21  2  0
 13  9  1  0
 21 16  1  0
M  END
>  <ref_mols>  (60) 
d0248a,d0376a

>  <fragmenstein_runtime>  (60) 
[23.65936827659607]

>  <scratch_subdir>  (60) 
['/opt/xchem-fragalysis-2/maxwin/BulkDock/SCRATCH/211010/C2126-P22']

>  <tags>  (60) 
['Fragmenstein placed']

>  <fragmenstein_mode>  (60) 
['expansion']

>  <SLURM_JOB_NAME>  (60) 
BulkDock.place:Flavi_NS5_RdRp:RdRp_knitwork_thumb_site_2_pure_split4000_batch000

>  <HIPPO Pose ID>  (60) 
48044

>  <exports>  (60) 
['/opt/xchem-fragalysis-2/maxwin/BulkDock/OUTPUTS/RdRp_knitwork_thumb_site_2_pure_split4000_batch000_211010.sdf', '/opt/xchem-fragalysis-2/maxwin/BulkDock/OUTPUTS/RdRp_knitwork_thumb_site_2_pure_fragalysis.sdf']

>  <inchikey>  (60) 
GPNXAYYCCMHODH-UHFFFAOYSA-N

>  <csv_name>  (60) 
RdRp_knitwork_thumb_site_2_pure_split4000_batch000.csv

>  <alias>  (60) 
None

>  <fragmenstein_error>  (60) 
['']

>  <SLURM_JOB_ID>  (60) 
211010

>  <original SMILES>  (60) 
CC(C)(CO)NC(=O)c1cscc1OCc1ccccc1

>  <name>  (60) 
GPNXAYYCCMHODH-UHFFFAOYSA-N

>  <ref_pdb>  (60) 
d0248a

>  <original ID>  (60) 
GPNXAYYCCMHODH-UHFFFAOYSA-N

>  <energy_score>  (60) 
-276.448991

>  <fragmenstein_outcome>  (60) 
['acceptable']

>  <HIPPO Compound ID>  (60) 
2126

>  <distance_score>  (60) 
0.930405

$$$$
48060
     RDKit          3D

 21 22  0  0  0  0  0  0  0  0999 V2000
  -13.8789  -69.2986  -22.9836 C   0  0  0  0  0  0  0  0  0  0  0  0
  -13.6661  -70.7482  -22.5145 C   0  0  0  0  0  0  0  0  0  0  0  0
  -14.9124  -71.1368  -21.6846 C   0  0  0  0  0  0  0  0  0  0  0  0
  -13.5998  -71.7157  -23.7208 C   0  0  0  0  0  0  0  0  0  0  0  0
  -12.6486  -71.3491  -24.7055 O   0  0  0  0  0  0  0  0  0  0  0  0
  -12.4733  -70.8717  -21.6098 N   0  0  0  0  0  0  0  0  0  0  0  0
  -11.2224  -70.0363  -21.8007 C   0  0  0  0  0  0  0  0  0  0  0  0
  -10.9974  -70.3513  -22.9894 O   0  0  0  0  0  0  0  0  0  0  0  0
  -10.7387  -70.6902  -20.4971 C   0  0  0  0  0  0  0  0  0  0  0  0
  -11.3866  -70.4895  -19.2734 C   0  0  0  0  0  0  0  0  0  0  0  0
  -10.6002  -71.2070  -17.9484 S   0  0  0  0  0  0  0  0  0  0  0  0
   -9.2358  -71.5680  -18.8988 C   0  0  0  0  0  0  0  0  0  0  0  0
   -9.3894  -71.2120  -20.2234 C   0  0  0  0  0  0  0  0  0  0  0  0
   -8.3533  -71.2144  -21.1123 O   0  0  0  0  0  0  0  0  0  0  0  0
   -7.2607  -72.1283  -20.8654 C   0  0  0  0  0  0  0  0  0  0  0  0
   -5.9462  -71.4830  -20.4421 C   0  0  0  0  0  0  0  0  0  0  0  0
   -5.8909  -70.2945  -19.7064 C   0  0  0  0  0  0  0  0  0  0  0  0
   -4.6652  -69.7029  -19.3768 C   0  0  0  0  0  0  0  0  0  0  0  0
   -3.4705  -70.2951  -19.7751 C   0  0  0  0  0  0  0  0  0  0  0  0
   -3.5018  -71.4891  -20.4884 C   0  0  0  0  0  0  0  0  0  0  0  0
   -4.7273  -72.0866  -20.8044 C   0  0  0  0  0  0  0  0  0  0  0  0
  1  2  1  0
  2  3  1  0
  2  4  1  0
  4  5  1  0
  2  6  1  0
  6  7  1  0
  7  8  2  0
  7  9  1  0
  9 10  2  0
 10 11  1  0
 11 12  1  0
 12 13  2  0
 13 14  1  0
 14 15  1  0
 15 16  1  0
 16 17  2  0
 17 18  1  0
 18 19  2  0
 19 20  1  0
 20 21  2  0
 13  9  1  0
 21 16  1  0
M  END
>  <ref_mols>  (61) 
d0248a,d0376a

>  <fragmenstein_runtime>  (61) 
[23.755635499954224]

>  <scratch_subdir>  (61) 
['/opt/xchem-fragalysis-2/maxwin/BulkDock/SCRATCH/211010/C2126-P33']

>  <tags>  (61) 
['Fragmenstein placed']

>  <fragmenstein_mode>  (61) 
['expansion']

>  <SLURM_JOB_NAME>  (61) 
BulkDock.place:Flavi_NS5_RdRp:RdRp_knitwork_thumb_site_2_pure_split4000_batch000

>  <HIPPO Pose ID>  (61) 
48060

>  <exports>  (61) 
['/opt/xchem-fragalysis-2/maxwin/BulkDock/OUTPUTS/RdRp_knitwork_thumb_site_2_pure_split4000_batch000_211010.sdf', '/opt/xchem-fragalysis-2/maxwin/BulkDock/OUTPUTS/RdRp_knitwork_thumb_site_2_pure_fragalysis.sdf']

>  <inchikey>  (61) 
GPNXAYYCCMHODH-UHFFFAOYSA-N

>  <csv_name>  (61) 
RdRp_knitwork_thumb_site_2_pure_split4000_batch000.csv

>  <alias>  (61) 
None

>  <fragmenstein_error>  (61) 
['']

>  <SLURM_JOB_ID>  (61) 
211010

>  <original SMILES>  (61) 
CC(C)(CO)NC(=O)c1cscc1OCc1ccccc1

>  <name>  (61) 
GPNXAYYCCMHODH-UHFFFAOYSA-N

>  <ref_pdb>  (61) 
d0376a

>  <original ID>  (61) 
GPNXAYYCCMHODH-UHFFFAOYSA-N

>  <energy_score>  (61) 
-275.708866

>  <fragmenstein_outcome>  (61) 
['acceptable']

>  <HIPPO Compound ID>  (61) 
2126

>  <distance_score>  (61) 
0.899116

$$$$
48404
     RDKit          3D

 20 21  0  0  0  0  0  0  0  0999 V2000
  -14.1344  -69.6507  -22.8431 C   0  0  0  0  0  0  0  0  0  0  0  0
  -14.7091  -69.8731  -21.4619 C   0  0  0  0  0  0  0  0  0  0  0  0
  -13.4770  -69.8932  -20.1607 S   0  0  0  0  0  0  0  0  0  0  0  0
  -12.6493  -68.7191  -20.2635 O   0  0  0  0  0  0  0  0  0  0  0  0
  -14.1609  -70.2251  -18.9233 O   0  0  0  0  0  0  0  0  0  0  0  0
  -12.5388  -71.2343  -20.5021 N   0  0  0  0  0  0  0  0  0  0  0  0
  -11.2377  -71.1442  -21.1979 C   0  0  0  0  0  0  0  0  0  0  0  0
  -10.0737  -70.7499  -20.2826 C   0  0  1  0  0  0  0  0  0  0  0  0
  -10.0717  -71.3800  -18.8956 C   0  0  0  0  0  0  0  0  0  0  0  0
   -8.6311  -71.2099  -18.4648 C   0  0  0  0  0  0  0  0  0  0  0  0
   -8.2736  -71.1889  -17.2983 O   0  0  0  0  0  0  0  0  0  0  0  0
   -7.8405  -71.1410  -19.6146 N   0  0  0  0  0  0  0  0  0  0  0  0
   -6.4481  -70.8286  -19.6593 C   0  0  0  0  0  0  0  0  0  0  0  0
   -5.6430  -71.2617  -20.7017 C   0  0  0  0  0  0  0  0  0  0  0  0
   -4.3623  -70.7074  -20.9179 C   0  0  0  0  0  0  0  0  0  0  0  0
   -3.8512  -69.7161  -20.0780 C   0  0  0  0  0  0  0  0  0  0  0  0
   -2.6108  -68.9434  -20.4316 C   0  0  0  0  0  0  0  0  0  0  0  0
   -4.5831  -69.4049  -18.9381 C   0  0  0  0  0  0  0  0  0  0  0  0
   -5.8402  -69.9965  -18.7222 C   0  0  0  0  0  0  0  0  0  0  0  0
   -8.6783  -71.1433  -20.8041 C   0  0  0  0  0  0  0  0  0  0  0  0
  1  2  1  0
  2  3  1  0
  3  4  2  0
  3  5  2  0
  3  6  1  0
  6  7  1  0
  8  7  1  6
  8  9  1  0
  9 10  1  0
 10 11  2  0
 10 12  1  0
 12 13  1  0
 13 14  2  0
 14 15  1  0
 15 16  2  0
 16 17  1  0
 16 18  1  0
 18 19  2  0
 12 20  1  0
 20  8  1  0
 19 13  1  0
M  END
>  <ref_mols>  (62) 
d0174a,d0566a

>  <fragmenstein_runtime>  (62) 
[11.740421056747437]

>  <scratch_subdir>  (62) 
['/opt/xchem-fragalysis-2/maxwin/BulkDock/SCRATCH/211010/C2829-P45']

>  <tags>  (62) 
['Fragmenstein placed']

>  <fragmenstein_mode>  (62) 
['expansion']

>  <SLURM_JOB_NAME>  (62) 
BulkDock.place:Flavi_NS5_RdRp:RdRp_knitwork_thumb_site_2_pure_split4000_batch000

>  <HIPPO Pose ID>  (62) 
48404

>  <exports>  (62) 
['/opt/xchem-fragalysis-2/maxwin/BulkDock/OUTPUTS/RdRp_knitwork_thumb_site_2_pure_split4000_batch000_211010.sdf', '/opt/xchem-fragalysis-2/maxwin/BulkDock/OUTPUTS/RdRp_knitwork_thumb_site_2_pure_fragalysis.sdf']

>  <inchikey>  (62) 
RHYGREJDHHQRDC-GFCCVEGCSA-N

>  <csv_name>  (62) 
RdRp_knitwork_thumb_site_2_pure_split4000_batch000.csv

>  <alias>  (62) 
None

>  <fragmenstein_error>  (62) 
['']

>  <SLURM_JOB_ID>  (62) 
211010

>  <original SMILES>  (62) 
CCS(=O)(=O)NC[C@H]1CC(=O)N(c2ccc(C)cc2)C1

>  <name>  (62) 
RHYGREJDHHQRDC-GFCCVEGCSA-N

>  <ref_pdb>  (62) 
d0566a

>  <original ID>  (62) 
RHYGREJDHHQRDC-GFCCVEGCSA-N

>  <energy_score>  (62) 
-25.541663

>  <fragmenstein_outcome>  (62) 
['acceptable']

>  <HIPPO Compound ID>  (62) 
2829

>  <distance_score>  (62) 
0.945776

$$$$
48487
     RDKit          3D

 20 21  0  0  0  0  0  0  0  0999 V2000
  -14.1479  -69.6505  -22.8418 C   0  0  0  0  0  0  0  0  0  0  0  0
  -14.7237  -69.8669  -21.4599 C   0  0  0  0  0  0  0  0  0  0  0  0
  -13.4917  -69.8900  -20.1589 S   0  0  0  0  0  0  0  0  0  0  0  0
  -12.6575  -68.7209  -20.2650 O   0  0  0  0  0  0  0  0  0  0  0  0
  -14.1759  -70.2172  -18.9204 O   0  0  0  0  0  0  0  0  0  0  0  0
  -12.5607  -71.2368  -20.4972 N   0  0  0  0  0  0  0  0  0  0  0  0
  -11.2604  -71.1538  -21.1933 C   0  0  0  0  0  0  0  0  0  0  0  0
  -10.0966  -70.7504  -20.2820 C   0  0  1  0  0  0  0  0  0  0  0  0
  -10.0955  -71.3599  -18.8850 C   0  0  0  0  0  0  0  0  0  0  0  0
   -8.6526  -71.1930  -18.4598 C   0  0  0  0  0  0  0  0  0  0  0  0
   -8.2858  -71.1647  -17.2963 O   0  0  0  0  0  0  0  0  0  0  0  0
   -7.8650  -71.1380  -19.6119 N   0  0  0  0  0  0  0  0  0  0  0  0
   -6.4701  -70.8475  -19.6629 C   0  0  0  0  0  0  0  0  0  0  0  0
   -5.6792  -71.3091  -20.7056 C   0  0  0  0  0  0  0  0  0  0  0  0
   -4.3905  -70.7832  -20.9294 C   0  0  0  0  0  0  0  0  0  0  0  0
   -3.8780  -69.7906  -20.1014 C   0  0  0  0  0  0  0  0  0  0  0  0
   -2.4308  -68.9646  -20.5266 Cl  0  0  0  0  0  0  0  0  0  0  0  0
   -4.5795  -69.4461  -18.9597 C   0  0  0  0  0  0  0  0  0  0  0  0
   -5.8459  -70.0128  -18.7340 C   0  0  0  0  0  0  0  0  0  0  0  0
   -8.7046  -71.1566  -20.8000 C   0  0  0  0  0  0  0  0  0  0  0  0
  1  2  1  0
  2  3  1  0
  3  4  2  0
  3  5  2  0
  3  6  1  0
  6  7  1  0
  8  7  1  6
  8  9  1  0
  9 10  1  0
 10 11  2  0
 10 12  1  0
 12 13  1  0
 13 14  2  0
 14 15  1  0
 15 16  2  0
 16 17  1  0
 16 18  1  0
 18 19  2  0
 12 20  1  0
 20  8  1  0
 19 13  1  0
M  END
>  <ref_mols>  (63) 
d0174a,d0566a

>  <fragmenstein_runtime>  (63) 
[10.632996082305908]

>  <scratch_subdir>  (63) 
['/opt/xchem-fragalysis-2/maxwin/BulkDock/SCRATCH/211010/C3075-P45']

>  <tags>  (63) 
['Fragmenstein placed']

>  <fragmenstein_mode>  (63) 
['expansion']

>  <SLURM_JOB_NAME>  (63) 
BulkDock.place:Flavi_NS5_RdRp:RdRp_knitwork_thumb_site_2_pure_split4000_batch000

>  <HIPPO Pose ID>  (63) 
48487

>  <exports>  (63) 
['/opt/xchem-fragalysis-2/maxwin/BulkDock/OUTPUTS/RdRp_knitwork_thumb_site_2_pure_split4000_batch000_211010.sdf', '/opt/xchem-fragalysis-2/maxwin/BulkDock/OUTPUTS/RdRp_knitwork_thumb_site_2_pure_fragalysis.sdf']

>  <inchikey>  (63) 
FOZSYKGVMKDKBV-SNVBAGLBSA-N

>  <csv_name>  (63) 
RdRp_knitwork_thumb_site_2_pure_split4000_batch000.csv

>  <alias>  (63) 
None

>  <fragmenstein_error>  (63) 
['']

>  <SLURM_JOB_ID>  (63) 
211010

>  <original SMILES>  (63) 
CCS(=O)(=O)NC[C@H]1CC(=O)N(c2ccc(Cl)cc2)C1

>  <name>  (63) 
FOZSYKGVMKDKBV-SNVBAGLBSA-N

>  <ref_pdb>  (63) 
d0566a

>  <original ID>  (63) 
FOZSYKGVMKDKBV-SNVBAGLBSA-N

>  <energy_score>  (63) 
-21.834161

>  <fragmenstein_outcome>  (63) 
['acceptable']

>  <HIPPO Compound ID>  (63) 
3075

>  <distance_score>  (63) 
0.957905

$$$$
48888
     RDKit          3D

 23 25  0  0  0  0  0  0  0  0999 V2000
  -14.5061  -69.6189  -23.0026 C   0  0  0  0  0  0  0  0  0  0  0  0
  -15.0645  -69.9999  -21.6473 C   0  0  0  0  0  0  0  0  0  0  0  0
  -13.8894  -69.7589  -20.3252 S   0  0  0  0  0  0  0  0  0  0  0  0
  -13.3346  -68.4333  -20.4274 O   0  0  0  0  0  0  0  0  0  0  0  0
  -14.4566  -70.2418  -19.0828 O   0  0  0  0  0  0  0  0  0  0  0  0
  -12.6715  -70.8740  -20.7154 N   0  0  0  0  0  0  0  0  0  0  0  0
  -11.2791  -70.3529  -20.5707 C   0  0  0  0  0  0  0  0  0  0  0  0
  -10.2692  -71.4049  -20.0921 C   0  0  1  0  0  0  0  0  0  0  0  0
   -8.8312  -70.8692  -20.3095 C   0  0  0  0  0  0  0  0  0  0  0  0
   -7.8334  -71.8721  -19.9068 N   0  0  0  0  0  0  0  0  0  0  0  0
   -6.5028  -71.4660  -20.0460 C   0  0  0  0  0  0  0  0  0  0  0  0
   -6.2249  -70.1524  -20.0921 N   0  0  0  0  0  0  0  0  0  0  0  0
   -4.9239  -69.7944  -20.1553 C   0  0  0  0  0  0  0  0  0  0  0  0
   -3.8952  -70.6938  -20.1881 C   0  0  0  0  0  0  0  0  0  0  0  0
   -2.6230  -70.2989  -20.2262 F   0  0  0  0  0  0  0  0  0  0  0  0
   -4.2593  -72.0107  -20.1344 C   0  0  0  0  0  0  0  0  0  0  0  0
   -5.5471  -72.4143  -20.0410 N   0  0  0  0  0  0  0  0  0  0  0  0
   -7.9835  -72.4724  -18.5769 C   0  0  0  0  0  0  0  0  0  0  0  0
   -9.3285  -72.2874  -17.9705 C   0  0  0  0  0  0  0  0  0  0  0  0
   -9.8199  -72.5168  -16.7058 C   0  0  0  0  0  0  0  0  0  0  0  0
  -11.1214  -72.1018  -16.6151 N   0  0  0  0  0  0  0  0  0  0  0  0
  -11.4258  -71.6522  -17.8130 C   0  0  0  0  0  0  0  0  0  0  0  0
  -10.3836  -71.7678  -18.6789 N   0  0  0  0  0  0  0  0  0  0  0  0
  1  2  1  0
  2  3  1  0
  3  4  2  0
  3  5  2  0
  3  6  1  0
  6  7  1  0
  8  7  1  1
  8  9  1  0
  9 10  1  0
 10 11  1  0
 11 12  2  0
 12 13  1  0
 13 14  2  0
 14 15  1  0
 14 16  1  0
 16 17  2  0
 10 18  1  0
 18 19  1  0
 19 20  2  0
 20 21  1  0
 21 22  2  0
 22 23  1  0
 23  8  1  0
 17 11  1  0
 23 19  1  0
M  END
>  <ref_mols>  (64) 
d0174a,d0587a

>  <fragmenstein_runtime>  (64) 
[4.597077131271362]

>  <scratch_subdir>  (64) 
['/opt/xchem-fragalysis-2/maxwin/BulkDock/SCRATCH/211010/C3914-P17']

>  <tags>  (64) 
['Fragmenstein placed']

>  <fragmenstein_mode>  (64) 
['expansion']

>  <SLURM_JOB_NAME>  (64) 
BulkDock.place:Flavi_NS5_RdRp:RdRp_knitwork_thumb_site_2_pure_split4000_batch000

>  <HIPPO Pose ID>  (64) 
48888

>  <exports>  (64) 
['/opt/xchem-fragalysis-2/maxwin/BulkDock/OUTPUTS/RdRp_knitwork_thumb_site_2_pure_split4000_batch000_211010.sdf', '/opt/xchem-fragalysis-2/maxwin/BulkDock/OUTPUTS/RdRp_knitwork_thumb_site_2_pure_fragalysis.sdf']

>  <inchikey>  (64) 
WOVNUBZQLSDEHQ-LBPRGKRZSA-N

>  <csv_name>  (64) 
RdRp_knitwork_thumb_site_2_pure_split4000_batch000.csv

>  <alias>  (64) 
None

>  <fragmenstein_error>  (64) 
['']

>  <SLURM_JOB_ID>  (64) 
211010

>  <original SMILES>  (64) 
CCS(=O)(=O)NC[C@H]1CN(c2ncc(F)cn2)Cc2cncn21

>  <name>  (64) 
WOVNUBZQLSDEHQ-LBPRGKRZSA-N

>  <ref_pdb>  (64) 
d0174a

>  <original ID>  (64) 
WOVNUBZQLSDEHQ-LBPRGKRZSA-N

>  <energy_score>  (64) 
-41.59974

>  <fragmenstein_outcome>  (64) 
['acceptable']

>  <HIPPO Compound ID>  (64) 
3914

>  <distance_score>  (64) 
0.882781

$$$$
48890
     RDKit          3D

 23 25  0  0  0  0  0  0  0  0999 V2000
  -14.4912  -69.7809  -22.9163 C   0  0  0  0  0  0  0  0  0  0  0  0
  -15.0875  -70.0413  -21.5493 C   0  0  0  0  0  0  0  0  0  0  0  0
  -13.9134  -69.7824  -20.2300 S   0  0  0  0  0  0  0  0  0  0  0  0
  -13.3653  -68.4556  -20.3520 O   0  0  0  0  0  0  0  0  0  0  0  0
  -14.4820  -70.2520  -18.9829 O   0  0  0  0  0  0  0  0  0  0  0  0
  -12.6909  -70.8964  -20.6078 N   0  0  0  0  0  0  0  0  0  0  0  0
  -11.3019  -70.3572  -20.4924 C   0  0  0  0  0  0  0  0  0  0  0  0
  -10.2727  -71.4030  -20.0437 C   0  0  1  0  0  0  0  0  0  0  0  0
   -8.8425  -70.8599  -20.2939 C   0  0  0  0  0  0  0  0  0  0  0  0
   -7.8301  -71.8604  -19.9192 N   0  0  0  0  0  0  0  0  0  0  0  0
   -6.5038  -71.4440  -20.0772 C   0  0  0  0  0  0  0  0  0  0  0  0
   -6.2378  -70.1290  -20.1347 N   0  0  0  0  0  0  0  0  0  0  0  0
   -4.9401  -69.7558  -20.1905 C   0  0  0  0  0  0  0  0  0  0  0  0
   -3.9028  -70.6460  -20.2146 C   0  0  0  0  0  0  0  0  0  0  0  0
   -2.6334  -70.2422  -20.2478 F   0  0  0  0  0  0  0  0  0  0  0  0
   -4.2548  -71.9665  -20.1600 C   0  0  0  0  0  0  0  0  0  0  0  0
   -5.5390  -72.3836  -20.0695 N   0  0  0  0  0  0  0  0  0  0  0  0
   -7.9509  -72.4724  -18.5907 C   0  0  0  0  0  0  0  0  0  0  0  0
   -9.2796  -72.2887  -17.9492 C   0  0  0  0  0  0  0  0  0  0  0  0
   -9.7362  -72.5179  -16.6717 C   0  0  0  0  0  0  0  0  0  0  0  0
  -11.0356  -72.1059  -16.5471 N   0  0  0  0  0  0  0  0  0  0  0  0
  -11.3740  -71.6573  -17.7364 C   0  0  0  0  0  0  0  0  0  0  0  0
  -10.3535  -71.7700  -18.6291 N   0  0  0  0  0  0  0  0  0  0  0  0
  1  2  1  0
  2  3  1  0
  3  4  2  0
  3  5  2  0
  3  6  1  0
  6  7  1  0
  8  7  1  1
  8  9  1  0
  9 10  1  0
 10 11  1  0
 11 12  2  0
 12 13  1  0
 13 14  2  0
 14 15  1  0
 14 16  1  0
 16 17  2  0
 10 18  1  0
 18 19  1  0
 19 20  2  0
 20 21  1  0
 21 22  2  0
 22 23  1  0
 23  8  1  0
 17 11  1  0
 23 19  1  0
M  END
>  <ref_mols>  (65) 
d0174a,d0587a

>  <fragmenstein_runtime>  (65) 
[4.541534185409546]

>  <scratch_subdir>  (65) 
['/opt/xchem-fragalysis-2/maxwin/BulkDock/SCRATCH/211010/C3914-P48']

>  <tags>  (65) 
['Fragmenstein placed']

>  <fragmenstein_mode>  (65) 
['expansion']

>  <SLURM_JOB_NAME>  (65) 
BulkDock.place:Flavi_NS5_RdRp:RdRp_knitwork_thumb_site_2_pure_split4000_batch000

>  <HIPPO Pose ID>  (65) 
48890

>  <exports>  (65) 
['/opt/xchem-fragalysis-2/maxwin/BulkDock/OUTPUTS/RdRp_knitwork_thumb_site_2_pure_split4000_batch000_211010.sdf', '/opt/xchem-fragalysis-2/maxwin/BulkDock/OUTPUTS/RdRp_knitwork_thumb_site_2_pure_fragalysis.sdf']

>  <inchikey>  (65) 
WOVNUBZQLSDEHQ-LBPRGKRZSA-N

>  <csv_name>  (65) 
RdRp_knitwork_thumb_site_2_pure_split4000_batch000.csv

>  <alias>  (65) 
None

>  <fragmenstein_error>  (65) 
['']

>  <SLURM_JOB_ID>  (65) 
211010

>  <original SMILES>  (65) 
CCS(=O)(=O)NC[C@H]1CN(c2ncc(F)cn2)Cc2cncn21

>  <name>  (65) 
WOVNUBZQLSDEHQ-LBPRGKRZSA-N

>  <ref_pdb>  (65) 
d0587a

>  <original ID>  (65) 
WOVNUBZQLSDEHQ-LBPRGKRZSA-N

>  <energy_score>  (65) 
-41.904217

>  <fragmenstein_outcome>  (65) 
['acceptable']

>  <HIPPO Compound ID>  (65) 
3914

>  <distance_score>  (65) 
0.892961

$$$$
48919
     RDKit          3D

 19 20  0  0  0  0  0  0  0  0999 V2000
  -14.2556  -69.4670  -22.8341 C   0  0  0  0  0  0  0  0  0  0  0  0
  -14.8414  -69.7048  -21.4586 C   0  0  0  0  0  0  0  0  0  0  0  0
  -13.6055  -69.8333  -20.1707 S   0  0  0  0  0  0  0  0  0  0  0  0
  -12.7904  -68.6460  -20.1803 O   0  0  0  0  0  0  0  0  0  0  0  0
  -14.2809  -70.2643  -18.9600 O   0  0  0  0  0  0  0  0  0  0  0  0
  -12.6889  -71.1408  -20.6729 N   0  0  0  0  0  0  0  0  0  0  0  0
  -11.3159  -70.8683  -21.2123 C   0  0  0  0  0  0  0  0  0  0  0  0
  -10.1949  -71.1279  -20.2105 C   0  0  0  0  0  0  0  0  0  0  0  0
  -10.5615  -71.5796  -18.9899 N   0  0  0  0  0  0  0  0  0  0  0  0
   -9.5598  -71.8983  -18.1588 C   0  0  0  0  0  0  0  0  0  0  0  0
   -8.2307  -71.8064  -18.4987 C   0  0  0  0  0  0  0  0  0  0  0  0
   -7.9319  -71.3590  -19.7745 C   0  0  0  0  0  0  0  0  0  0  0  0
   -6.6010  -71.2833  -20.2299 N   0  0  0  0  0  0  0  0  0  0  0  0
   -5.8227  -70.2534  -19.5338 C   0  0  0  0  0  0  0  0  0  0  0  0
   -4.4608  -70.0857  -20.2074 C   0  0  0  0  0  0  0  0  0  0  0  0
   -3.7027  -71.4038  -20.3000 C   0  0  0  0  0  0  0  0  0  0  0  0
   -4.5672  -72.4748  -20.9555 C   0  0  0  0  0  0  0  0  0  0  0  0
   -5.9307  -72.5941  -20.2692 C   0  0  0  0  0  0  0  0  0  0  0  0
   -8.9143  -71.0080  -20.6286 N   0  0  0  0  0  0  0  0  0  0  0  0
  1  2  1  0
  2  3  1  0
  3  4  2  0
  3  5  2  0
  3  6  1  0
  6  7  1  0
  7  8  1  0
  8  9  2  0
  9 10  1  0
 10 11  2  0
 11 12  1  0
 12 13  1  0
 13 14  1  0
 14 15  1  0
 15 16  1  0
 16 17  1  0
 17 18  1  0
 12 19  2  0
 19  8  1  0
 18 13  1  0
M  END
>  <ref_mols>  (66) 
d0174a,d0587a

>  <fragmenstein_runtime>  (66) 
[3.309903621673584]

>  <scratch_subdir>  (66) 
['/opt/xchem-fragalysis-2/maxwin/BulkDock/SCRATCH/211010/C3933-P17']

>  <tags>  (66) 
['Fragmenstein placed']

>  <fragmenstein_mode>  (66) 
['expansion']

>  <SLURM_JOB_NAME>  (66) 
BulkDock.place:Flavi_NS5_RdRp:RdRp_knitwork_thumb_site_2_pure_split4000_batch000

>  <HIPPO Pose ID>  (66) 
48919

>  <exports>  (66) 
['/opt/xchem-fragalysis-2/maxwin/BulkDock/OUTPUTS/RdRp_knitwork_thumb_site_2_pure_split4000_batch000_211010.sdf', '/opt/xchem-fragalysis-2/maxwin/BulkDock/OUTPUTS/RdRp_knitwork_thumb_site_2_pure_fragalysis.sdf']

>  <inchikey>  (66) 
TWUWQUTUSJFAOI-UHFFFAOYSA-N

>  <csv_name>  (66) 
RdRp_knitwork_thumb_site_2_pure_split4000_batch000.csv

>  <alias>  (66) 
None

>  <fragmenstein_error>  (66) 
['']

>  <SLURM_JOB_ID>  (66) 
211010

>  <original SMILES>  (66) 
CCS(=O)(=O)NCc1nccc(N2CCCCC2)n1

>  <name>  (66) 
TWUWQUTUSJFAOI-UHFFFAOYSA-N

>  <ref_pdb>  (66) 
d0174a

>  <original ID>  (66) 
TWUWQUTUSJFAOI-UHFFFAOYSA-N

>  <energy_score>  (66) 
-42.940006

>  <fragmenstein_outcome>  (66) 
['acceptable']

>  <HIPPO Compound ID>  (66) 
3933

>  <distance_score>  (66) 
0.845563

$$$$
48924
     RDKit          3D

 19 20  0  0  0  0  0  0  0  0999 V2000
  -14.2749  -69.6314  -22.7968 C   0  0  0  0  0  0  0  0  0  0  0  0
  -14.8522  -69.8292  -21.4124 C   0  0  0  0  0  0  0  0  0  0  0  0
  -13.6091  -69.8666  -20.1276 S   0  0  0  0  0  0  0  0  0  0  0  0
  -12.8472  -68.6460  -20.1829 O   0  0  0  0  0  0  0  0  0  0  0  0
  -14.2677  -70.2855  -18.9034 O   0  0  0  0  0  0  0  0  0  0  0  0
  -12.6415  -71.1490  -20.5990 N   0  0  0  0  0  0  0  0  0  0  0  0
  -11.2652  -70.8462  -21.1219 C   0  0  0  0  0  0  0  0  0  0  0  0
  -10.1515  -71.1788  -20.1316 C   0  0  0  0  0  0  0  0  0  0  0  0
  -10.5429  -71.6916  -18.9437 N   0  0  0  0  0  0  0  0  0  0  0  0
   -9.5604  -72.0769  -18.1199 C   0  0  0  0  0  0  0  0  0  0  0  0
   -8.2255  -71.9938  -18.4378 C   0  0  0  0  0  0  0  0  0  0  0  0
   -7.8960  -71.4817  -19.6818 C   0  0  0  0  0  0  0  0  0  0  0  0
   -6.5503  -71.3755  -20.0969 N   0  0  0  0  0  0  0  0  0  0  0  0
   -5.9302  -70.1718  -19.5313 C   0  0  0  0  0  0  0  0  0  0  0  0
   -4.5663  -69.9336  -20.1767 C   0  0  0  0  0  0  0  0  0  0  0  0
   -3.6547  -71.1473  -20.0319 C   0  0  0  0  0  0  0  0  0  0  0  0
   -4.3477  -72.4165  -20.5209 C   0  0  0  0  0  0  0  0  0  0  0  0
   -5.7351  -72.5865  -19.8938 C   0  0  0  0  0  0  0  0  0  0  0  0
   -8.8615  -71.0528  -20.5240 N   0  0  0  0  0  0  0  0  0  0  0  0
  1  2  1  0
  2  3  1  0
  3  4  2  0
  3  5  2  0
  3  6  1  0
  6  7  1  0
  7  8  1  0
  8  9  2  0
  9 10  1  0
 10 11  2  0
 11 12  1  0
 12 13  1  0
 13 14  1  0
 14 15  1  0
 15 16  1  0
 16 17  1  0
 17 18  1  0
 12 19  2  0
 19  8  1  0
 18 13  1  0
M  END
>  <ref_mols>  (67) 
d0174a,d0587a

>  <fragmenstein_runtime>  (67) 
[2.696516275405884]

>  <scratch_subdir>  (67) 
['/opt/xchem-fragalysis-2/maxwin/BulkDock/SCRATCH/211010/C3933-P48']

>  <tags>  (67) 
['Fragmenstein placed']

>  <fragmenstein_mode>  (67) 
['expansion']

>  <SLURM_JOB_NAME>  (67) 
BulkDock.place:Flavi_NS5_RdRp:RdRp_knitwork_thumb_site_2_pure_split4000_batch000

>  <HIPPO Pose ID>  (67) 
48924

>  <exports>  (67) 
['/opt/xchem-fragalysis-2/maxwin/BulkDock/OUTPUTS/RdRp_knitwork_thumb_site_2_pure_split4000_batch000_211010.sdf', '/opt/xchem-fragalysis-2/maxwin/BulkDock/OUTPUTS/RdRp_knitwork_thumb_site_2_pure_fragalysis.sdf']

>  <inchikey>  (67) 
TWUWQUTUSJFAOI-UHFFFAOYSA-N

>  <csv_name>  (67) 
RdRp_knitwork_thumb_site_2_pure_split4000_batch000.csv

>  <alias>  (67) 
None

>  <fragmenstein_error>  (67) 
['']

>  <SLURM_JOB_ID>  (67) 
211010

>  <original SMILES>  (67) 
CCS(=O)(=O)NCc1nccc(N2CCCCC2)n1

>  <name>  (67) 
TWUWQUTUSJFAOI-UHFFFAOYSA-N

>  <ref_pdb>  (67) 
d0587a

>  <original ID>  (67) 
TWUWQUTUSJFAOI-UHFFFAOYSA-N

>  <energy_score>  (67) 
-42.557603

>  <fragmenstein_outcome>  (67) 
['acceptable']

>  <HIPPO Compound ID>  (67) 
3933

>  <distance_score>  (67) 
0.844063

$$$$
49351
     RDKit          3D

 20 21  0  0  0  0  0  0  0  0999 V2000
  -14.2809  -69.1776  -22.9940 C   0  0  0  0  0  0  0  0  0  0  0  0
  -14.1039  -70.6239  -22.5342 C   0  0  0  0  0  0  0  0  0  0  0  0
  -15.3356  -71.0054  -21.6964 C   0  0  0  0  0  0  0  0  0  0  0  0
  -14.0450  -71.6046  -23.7440 C   0  0  0  0  0  0  0  0  0  0  0  0
  -13.1679  -71.1942  -24.7824 O   0  0  0  0  0  0  0  0  0  0  0  0
  -12.9140  -70.7472  -21.6649 N   0  0  0  0  0  0  0  0  0  0  0  0
  -11.6434  -70.2855  -22.0311 C   0  0  0  0  0  0  0  0  0  0  0  0
  -11.2658  -70.4050  -23.2001 O   0  0  0  0  0  0  0  0  0  0  0  0
  -10.7473  -70.6827  -21.0039 N   0  0  0  0  0  0  0  0  0  0  0  0
  -11.0136  -71.3388  -19.7303 C   0  0  0  0  0  0  0  0  0  0  0  0
   -9.6347  -71.7308  -19.1993 C   0  0  0  0  0  0  0  0  0  0  0  0
   -8.6881  -70.6879  -19.8147 C   0  0  1  0  0  0  0  0  0  0  0  0
   -7.2181  -71.0325  -19.9062 C   0  0  0  0  0  0  0  0  0  0  0  0
   -6.7831  -72.2712  -20.3659 C   0  0  0  0  0  0  0  0  0  0  0  0
   -5.4843  -72.6110  -20.5489 N   0  0  0  0  0  0  0  0  0  0  0  0
   -4.5519  -71.6636  -20.3059 C   0  0  0  0  0  0  0  0  0  0  0  0
   -4.8662  -70.4021  -19.8581 C   0  0  0  0  0  0  0  0  0  0  0  0
   -3.9045  -69.4917  -19.6559 F   0  0  0  0  0  0  0  0  0  0  0  0
   -6.2059  -70.0928  -19.6390 C   0  0  0  0  0  0  0  0  0  0  0  0
   -9.3275  -70.4259  -21.1837 C   0  0  0  0  0  0  0  0  0  0  0  0
  1  2  1  0
  2  3  1  0
  2  4  1  0
  4  5  1  0
  2  6  1  0
  6  7  1  0
  7  8  2  0
  7  9  1  0
  9 10  1  0
 10 11  1  0
 11 12  1  0
 12 13  1  6
 13 14  2  0
 14 15  1  0
 15 16  2  0
 16 17  1  0
 17 18  1  0
 17 19  2  0
 12 20  1  0
 20  9  1  0
 19 13  1  0
M  END
>  <ref_mols>  (68) 
d0248a,d0503a

>  <fragmenstein_runtime>  (68) 
[4.118922710418701]

>  <scratch_subdir>  (68) 
['/opt/xchem-fragalysis-2/maxwin/BulkDock/SCRATCH/211010/C4280-P44']

>  <tags>  (68) 
['Fragmenstein placed']

>  <fragmenstein_mode>  (68) 
['expansion']

>  <SLURM_JOB_NAME>  (68) 
BulkDock.place:Flavi_NS5_RdRp:RdRp_knitwork_thumb_site_2_pure_split4000_batch000

>  <HIPPO Pose ID>  (68) 
49351

>  <exports>  (68) 
['/opt/xchem-fragalysis-2/maxwin/BulkDock/OUTPUTS/RdRp_knitwork_thumb_site_2_pure_split4000_batch000_211010.sdf', '/opt/xchem-fragalysis-2/maxwin/BulkDock/OUTPUTS/RdRp_knitwork_thumb_site_2_pure_fragalysis.sdf']

>  <inchikey>  (68) 
OMEKYKLBXTVDHN-SNVBAGLBSA-N

>  <csv_name>  (68) 
RdRp_knitwork_thumb_site_2_pure_split4000_batch000.csv

>  <alias>  (68) 
None

>  <fragmenstein_error>  (68) 
['']

>  <SLURM_JOB_ID>  (68) 
211010

>  <original SMILES>  (68) 
CC(C)(CO)NC(=O)N1CC[C@@H](c2cncc(F)c2)C1

>  <name>  (68) 
OMEKYKLBXTVDHN-SNVBAGLBSA-N

>  <ref_pdb>  (68) 
d0503a

>  <original ID>  (68) 
OMEKYKLBXTVDHN-SNVBAGLBSA-N

>  <energy_score>  (68) 
-30.318908

>  <fragmenstein_outcome>  (68) 
['acceptable']

>  <HIPPO Compound ID>  (68) 
4280

>  <distance_score>  (68) 
0.98612

$$$$
50417
     RDKit          3D

 15 15  0  0  0  0  0  0  0  0999 V2000
  -14.7110  -69.4600  -22.6404 C   0  0  0  0  0  0  0  0  0  0  0  0
  -15.2222  -69.6142  -21.2220 C   0  0  0  0  0  0  0  0  0  0  0  0
  -13.9241  -69.7531  -19.9952 S   0  0  0  0  0  0  0  0  0  0  0  0
  -13.0062  -68.6515  -20.1448 O   0  0  0  0  0  0  0  0  0  0  0  0
  -14.5368  -70.0458  -18.7143 O   0  0  0  0  0  0  0  0  0  0  0  0
  -13.1483  -71.1681  -20.4229 N   0  0  0  0  0  0  0  0  0  0  0  0
  -11.9636  -71.0407  -21.2940 C   0  0  0  0  0  0  0  0  0  0  0  0
  -10.6590  -71.1730  -20.5434 C   0  0  0  0  0  0  0  0  0  0  0  0
  -10.7239  -71.7751  -19.3156 N   0  0  0  0  0  0  0  0  0  0  0  0
   -9.5706  -71.8798  -18.6183 C   0  0  0  0  0  0  0  0  0  0  0  0
   -8.3493  -71.4150  -19.0743 C   0  0  0  0  0  0  0  0  0  0  0  0
   -8.3012  -70.8178  -20.3299 C   0  0  0  0  0  0  0  0  0  0  0  0
   -9.4608  -70.7211  -21.0960 C   0  0  0  0  0  0  0  0  0  0  0  0
   -9.3454  -70.1014  -22.3058 O   0  0  0  0  0  0  0  0  0  0  0  0
   -9.8041  -70.8714  -23.4158 C   0  0  0  0  0  0  0  0  0  0  0  0
  1  2  1  0
  2  3  1  0
  3  4  2  0
  3  5  2  0
  3  6  1  0
  6  7  1  0
  7  8  1  0
  8  9  2  0
  9 10  1  0
 10 11  2  0
 11 12  1  0
 12 13  2  0
 13 14  1  0
 14 15  1  0
 13  8  1  0
M  END
>  <ref_mols>  (69) 
d0174a,d0615a

>  <fragmenstein_runtime>  (69) 
[1.7414286136627197]

>  <scratch_subdir>  (69) 
['/opt/xchem-fragalysis-2/maxwin/BulkDock/SCRATCH/211010/C772-P50']

>  <tags>  (69) 
['Fragmenstein placed']

>  <fragmenstein_mode>  (69) 
['expansion']

>  <SLURM_JOB_NAME>  (69) 
BulkDock.place:Flavi_NS5_RdRp:RdRp_knitwork_thumb_site_2_pure_split4000_batch000

>  <HIPPO Pose ID>  (69) 
50417

>  <exports>  (69) 
['/opt/xchem-fragalysis-2/maxwin/BulkDock/OUTPUTS/RdRp_knitwork_thumb_site_2_pure_split4000_batch000_211010.sdf', '/opt/xchem-fragalysis-2/maxwin/BulkDock/OUTPUTS/RdRp_knitwork_thumb_site_2_pure_fragalysis.sdf']

>  <inchikey>  (69) 
VJAXJNJKELENHP-UHFFFAOYSA-N

>  <csv_name>  (69) 
RdRp_knitwork_thumb_site_2_pure_split4000_batch000.csv

>  <alias>  (69) 
None

>  <fragmenstein_error>  (69) 
['']

>  <SLURM_JOB_ID>  (69) 
211010

>  <original SMILES>  (69) 
CCS(=O)(=O)NCc1ncccc1OC

>  <name>  (69) 
VJAXJNJKELENHP-UHFFFAOYSA-N

>  <ref_pdb>  (69) 
d0615a

>  <original ID>  (69) 
VJAXJNJKELENHP-UHFFFAOYSA-N

>  <energy_score>  (69) 
-32.130172

>  <fragmenstein_outcome>  (69) 
['acceptable']

>  <HIPPO Compound ID>  (69) 
772

>  <distance_score>  (69) 
0.788304

$$$$
50469
     RDKit          3D

 14 14  0  0  0  0  0  0  0  0999 V2000
  -14.6105  -69.4454  -22.7173 C   0  0  0  0  0  0  0  0  0  0  0  0
  -15.1063  -69.6368  -21.2984 C   0  0  0  0  0  0  0  0  0  0  0  0
  -13.7876  -69.8159  -20.1007 S   0  0  0  0  0  0  0  0  0  0  0  0
  -12.8961  -68.6876  -20.2059 O   0  0  0  0  0  0  0  0  0  0  0  0
  -14.3816  -70.1879  -18.8308 O   0  0  0  0  0  0  0  0  0  0  0  0
  -12.9957  -71.1914  -20.6377 N   0  0  0  0  0  0  0  0  0  0  0  0
  -11.7141  -70.9944  -21.3610 C   0  0  0  0  0  0  0  0  0  0  0  0
  -10.5123  -71.1083  -20.4508 C   0  0  0  0  0  0  0  0  0  0  0  0
  -10.6838  -71.6977  -19.2298 N   0  0  0  0  0  0  0  0  0  0  0  0
   -9.5787  -71.8356  -18.4605 C   0  0  0  0  0  0  0  0  0  0  0  0
   -8.3093  -71.4267  -18.8458 C   0  0  0  0  0  0  0  0  0  0  0  0
   -8.1555  -70.8408  -20.0984 C   0  0  0  0  0  0  0  0  0  0  0  0
   -9.2705  -70.6889  -20.9096 C   0  0  0  0  0  0  0  0  0  0  0  0
   -9.1417  -70.1661  -22.1340 F   0  0  0  0  0  0  0  0  0  0  0  0
  1  2  1  0
  2  3  1  0
  3  4  2  0
  3  5  2  0
  3  6  1  0
  6  7  1  0
  7  8  1  0
  8  9  2  0
  9 10  1  0
 10 11  2  0
 11 12  1  0
 12 13  2  0
 13 14  1  0
 13  8  1  0
M  END
>  <ref_mols>  (70) 
d0174a,d0615a

>  <fragmenstein_runtime>  (70) 
[1.3924477100372314]

>  <scratch_subdir>  (70) 
['/opt/xchem-fragalysis-2/maxwin/BulkDock/SCRATCH/211010/C791-P50']

>  <tags>  (70) 
['Fragmenstein placed']

>  <fragmenstein_mode>  (70) 
['expansion']

>  <SLURM_JOB_NAME>  (70) 
BulkDock.place:Flavi_NS5_RdRp:RdRp_knitwork_thumb_site_2_pure_split4000_batch000

>  <HIPPO Pose ID>  (70) 
50469

>  <exports>  (70) 
['/opt/xchem-fragalysis-2/maxwin/BulkDock/OUTPUTS/RdRp_knitwork_thumb_site_2_pure_split4000_batch000_211010.sdf', '/opt/xchem-fragalysis-2/maxwin/BulkDock/OUTPUTS/RdRp_knitwork_thumb_site_2_pure_fragalysis.sdf']

>  <inchikey>  (70) 
VUWLOCLKMVGYPC-UHFFFAOYSA-N

>  <csv_name>  (70) 
RdRp_knitwork_thumb_site_2_pure_split4000_batch000.csv

>  <alias>  (70) 
None

>  <fragmenstein_error>  (70) 
['']

>  <SLURM_JOB_ID>  (70) 
211010

>  <original SMILES>  (70) 
CCS(=O)(=O)NCc1ncccc1F

>  <name>  (70) 
VUWLOCLKMVGYPC-UHFFFAOYSA-N

>  <ref_pdb>  (70) 
d0615a

>  <original ID>  (70) 
VUWLOCLKMVGYPC-UHFFFAOYSA-N

>  <energy_score>  (70) 
-40.213377

>  <fragmenstein_outcome>  (70) 
['acceptable']

>  <HIPPO Compound ID>  (70) 
791

>  <distance_score>  (70) 
0.681042

$$$$
50495
     RDKit          3D

 15 15  0  0  0  0  0  0  0  0999 V2000
  -10.7695  -70.6740  -23.1301 C   0  0  0  0  0  0  0  0  0  0  0  0
   -9.5275  -70.7764  -22.2691 C   0  0  0  0  0  0  0  0  0  0  0  0
   -9.6220  -70.9798  -20.7772 C   0  0  0  0  0  0  0  0  0  0  0  0
   -8.4134  -70.7639  -20.0795 C   0  0  0  0  0  0  0  0  0  0  0  0
   -8.3118  -71.0036  -18.7171 C   0  0  0  0  0  0  0  0  0  0  0  0
   -9.4442  -71.4166  -18.0583 C   0  0  0  0  0  0  0  0  0  0  0  0
  -10.6201  -71.6376  -18.6734 N   0  0  0  0  0  0  0  0  0  0  0  0
  -10.7085  -71.4466  -20.0249 C   0  0  0  0  0  0  0  0  0  0  0  0
  -11.9880  -72.0076  -20.5919 C   0  0  0  0  0  0  0  0  0  0  0  0
  -13.0630  -71.1541  -21.1298 N   0  0  0  0  0  0  0  0  0  0  0  0
  -13.6365  -69.8752  -20.2063 S   0  0  0  0  0  0  0  0  0  0  0  0
  -12.6388  -68.8365  -20.1890 O   0  0  0  0  0  0  0  0  0  0  0  0
  -14.1926  -70.4263  -18.9864 O   0  0  0  0  0  0  0  0  0  0  0  0
  -15.0024  -69.3164  -21.2219 C   0  0  0  0  0  0  0  0  0  0  0  0
  -14.6455  -69.1746  -22.6888 C   0  0  0  0  0  0  0  0  0  0  0  0
  1  2  1  0
  2  3  1  0
  3  4  2  0
  4  5  1  0
  5  6  2  0
  6  7  1  0
  7  8  2  0
  8  9  1  0
  9 10  1  0
 10 11  1  0
 11 12  2  0
 11 13  2  0
 11 14  1  0
 14 15  1  0
  8  3  1  0
M  END
>  <ref_mols>  (71) 
d0174a,d0615a

>  <fragmenstein_runtime>  (71) 
[1.6522011756896973]

>  <scratch_subdir>  (71) 
['/opt/xchem-fragalysis-2/maxwin/BulkDock/SCRATCH/211010/C802-P50']

>  <tags>  (71) 
['Fragmenstein placed']

>  <fragmenstein_mode>  (71) 
['expansion']

>  <SLURM_JOB_NAME>  (71) 
BulkDock.place:Flavi_NS5_RdRp:RdRp_knitwork_thumb_site_2_pure_split4000_batch000

>  <HIPPO Pose ID>  (71) 
50495

>  <exports>  (71) 
['/opt/xchem-fragalysis-2/maxwin/BulkDock/OUTPUTS/RdRp_knitwork_thumb_site_2_pure_split4000_batch000_211010.sdf', '/opt/xchem-fragalysis-2/maxwin/BulkDock/OUTPUTS/RdRp_knitwork_thumb_site_2_pure_fragalysis.sdf']

>  <inchikey>  (71) 
ZELSJRYQNZMUGW-UHFFFAOYSA-N

>  <csv_name>  (71) 
RdRp_knitwork_thumb_site_2_pure_split4000_batch000.csv

>  <alias>  (71) 
None

>  <fragmenstein_error>  (71) 
['']

>  <SLURM_JOB_ID>  (71) 
211010

>  <original SMILES>  (71) 
CCc1cccnc1CNS(=O)(=O)CC

>  <name>  (71) 
ZELSJRYQNZMUGW-UHFFFAOYSA-N

>  <ref_pdb>  (71) 
d0615a

>  <original ID>  (71) 
ZELSJRYQNZMUGW-UHFFFAOYSA-N

>  <energy_score>  (71) 
-19.544338

>  <fragmenstein_outcome>  (71) 
['acceptable']

>  <HIPPO Compound ID>  (71) 
802

>  <distance_score>  (71) 
0.992695

$$$$
50498
     RDKit          3D

 15 15  0  0  0  0  0  0  0  0999 V2000
  -14.6892  -69.5242  -22.6594 C   0  0  0  0  0  0  0  0  0  0  0  0
  -15.2155  -69.5558  -21.2387 C   0  0  0  0  0  0  0  0  0  0  0  0
  -13.9357  -69.7377  -19.9993 S   0  0  0  0  0  0  0  0  0  0  0  0
  -12.9088  -68.7501  -20.2257 O   0  0  0  0  0  0  0  0  0  0  0  0
  -14.5726  -69.8850  -18.7067 O   0  0  0  0  0  0  0  0  0  0  0  0
  -13.3077  -71.2567  -20.3182 N   0  0  0  0  0  0  0  0  0  0  0  0
  -12.0675  -71.3002  -21.1115 C   0  0  0  0  0  0  0  0  0  0  0  0
  -10.8080  -71.2317  -20.2672 C   0  0  0  0  0  0  0  0  0  0  0  0
  -10.9231  -71.5327  -18.9415 N   0  0  0  0  0  0  0  0  0  0  0  0
   -9.7852  -71.5025  -18.2136 C   0  0  0  0  0  0  0  0  0  0  0  0
   -9.9994  -71.8059  -16.5381 Cl  0  0  0  0  0  0  0  0  0  0  0  0
   -8.5272  -71.2317  -18.7263 C   0  0  0  0  0  0  0  0  0  0  0  0
   -8.4254  -70.9438  -20.0830 C   0  0  0  0  0  0  0  0  0  0  0  0
   -9.5803  -70.9442  -20.8608 C   0  0  0  0  0  0  0  0  0  0  0  0
   -9.4704  -70.5890  -22.7006 Br  0  0  0  0  0  0  0  0  0  0  0  0
  1  2  1  0
  2  3  1  0
  3  4  2  0
  3  5  2  0
  3  6  1  0
  6  7  1  0
  7  8  1  0
  8  9  2  0
  9 10  1  0
 10 11  1  0
 10 12  2  0
 12 13  1  0
 13 14  2  0
 14 15  1  0
 14  8  1  0
M  END
>  <ref_mols>  (72) 
d0174a,d0615a

>  <fragmenstein_runtime>  (72) 
[1.5386583805084229]

>  <scratch_subdir>  (72) 
['/opt/xchem-fragalysis-2/maxwin/BulkDock/SCRATCH/211010/C808-P50']

>  <tags>  (72) 
['Fragmenstein placed']

>  <fragmenstein_mode>  (72) 
['expansion']

>  <SLURM_JOB_NAME>  (72) 
BulkDock.place:Flavi_NS5_RdRp:RdRp_knitwork_thumb_site_2_pure_split4000_batch000

>  <HIPPO Pose ID>  (72) 
50498

>  <exports>  (72) 
['/opt/xchem-fragalysis-2/maxwin/BulkDock/OUTPUTS/RdRp_knitwork_thumb_site_2_pure_split4000_batch000_211010.sdf', '/opt/xchem-fragalysis-2/maxwin/BulkDock/OUTPUTS/RdRp_knitwork_thumb_site_2_pure_fragalysis.sdf']

>  <inchikey>  (72) 
KYKFBYOZGOXJTI-UHFFFAOYSA-N

>  <csv_name>  (72) 
RdRp_knitwork_thumb_site_2_pure_split4000_batch000.csv

>  <alias>  (72) 
None

>  <fragmenstein_error>  (72) 
['']

>  <SLURM_JOB_ID>  (72) 
211010

>  <original SMILES>  (72) 
CCS(=O)(=O)NCc1nc(Cl)ccc1Br

>  <name>  (72) 
KYKFBYOZGOXJTI-UHFFFAOYSA-N

>  <ref_pdb>  (72) 
d0615a

>  <original ID>  (72) 
KYKFBYOZGOXJTI-UHFFFAOYSA-N

>  <energy_score>  (72) 
-36.279095

>  <fragmenstein_outcome>  (72) 
['acceptable']

>  <HIPPO Compound ID>  (72) 
808

>  <distance_score>  (72) 
0.818691

$$$$
50523
     RDKit          3D

 15 15  0  0  0  0  0  0  0  0999 V2000
  -14.6538  -69.4785  -22.6486 C   0  0  0  0  0  0  0  0  0  0  0  0
  -15.2157  -69.6731  -21.2546 C   0  0  0  0  0  0  0  0  0  0  0  0
  -13.9608  -69.7508  -19.9783 S   0  0  0  0  0  0  0  0  0  0  0  0
  -13.0939  -68.6043  -20.0838 O   0  0  0  0  0  0  0  0  0  0  0  0
  -14.5906  -70.0954  -18.7204 O   0  0  0  0  0  0  0  0  0  0  0  0
  -13.0846  -71.1045  -20.3720 N   0  0  0  0  0  0  0  0  0  0  0  0
  -11.8692  -70.9612  -21.1632 C   0  0  0  0  0  0  0  0  0  0  0  0
  -10.5743  -71.0572  -20.4119 C   0  0  0  0  0  0  0  0  0  0  0  0
  -10.4678  -70.8332  -19.0424 C   0  0  0  0  0  0  0  0  0  0  0  0
   -9.3233  -70.9647  -18.3236 N   0  0  0  0  0  0  0  0  0  0  0  0
   -8.2108  -71.2959  -19.0108 C   0  0  0  0  0  0  0  0  0  0  0  0
   -8.1901  -71.4995  -20.3761 C   0  0  0  0  0  0  0  0  0  0  0  0
   -9.3843  -71.3632  -21.0772 C   0  0  0  0  0  0  0  0  0  0  0  0
   -9.3524  -71.6857  -22.4069 O   0  0  0  0  0  0  0  0  0  0  0  0
   -9.6208  -70.5870  -23.2720 C   0  0  0  0  0  0  0  0  0  0  0  0
  1  2  1  0
  2  3  1  0
  3  4  2  0
  3  5  2  0
  3  6  1  0
  6  7  1  0
  7  8  1  0
  8  9  2  0
  9 10  1  0
 10 11  2  0
 11 12  1  0
 12 13  2  0
 13 14  1  0
 14 15  1  0
 13  8  1  0
M  END
>  <ref_mols>  (73) 
d0174a,d0615a

>  <fragmenstein_runtime>  (73) 
[1.6365516185760498]

>  <scratch_subdir>  (73) 
['/opt/xchem-fragalysis-2/maxwin/BulkDock/SCRATCH/211010/C816-P50']

>  <tags>  (73) 
['Fragmenstein placed']

>  <fragmenstein_mode>  (73) 
['expansion']

>  <SLURM_JOB_NAME>  (73) 
BulkDock.place:Flavi_NS5_RdRp:RdRp_knitwork_thumb_site_2_pure_split4000_batch000

>  <HIPPO Pose ID>  (73) 
50523

>  <exports>  (73) 
['/opt/xchem-fragalysis-2/maxwin/BulkDock/OUTPUTS/RdRp_knitwork_thumb_site_2_pure_split4000_batch000_211010.sdf', '/opt/xchem-fragalysis-2/maxwin/BulkDock/OUTPUTS/RdRp_knitwork_thumb_site_2_pure_fragalysis.sdf']

>  <inchikey>  (73) 
NGXVTIXIVZITBA-UHFFFAOYSA-N

>  <csv_name>  (73) 
RdRp_knitwork_thumb_site_2_pure_split4000_batch000.csv

>  <alias>  (73) 
None

>  <fragmenstein_error>  (73) 
['']

>  <SLURM_JOB_ID>  (73) 
211010

>  <original SMILES>  (73) 
CCS(=O)(=O)NCc1cnccc1OC

>  <name>  (73) 
NGXVTIXIVZITBA-UHFFFAOYSA-N

>  <ref_pdb>  (73) 
d0615a

>  <original ID>  (73) 
NGXVTIXIVZITBA-UHFFFAOYSA-N

>  <energy_score>  (73) 
-27.294444

>  <fragmenstein_outcome>  (73) 
['acceptable']

>  <HIPPO Compound ID>  (73) 
816

>  <distance_score>  (73) 
0.778436

$$$$
50578
     RDKit          3D

 14 14  0  0  0  0  0  0  0  0999 V2000
  -14.6711  -69.4032  -22.7069 C   0  0  0  0  0  0  0  0  0  0  0  0
  -15.1973  -69.5822  -21.2965 C   0  0  0  0  0  0  0  0  0  0  0  0
  -13.8982  -69.7958  -20.0839 S   0  0  0  0  0  0  0  0  0  0  0  0
  -13.0004  -68.6707  -20.1537 O   0  0  0  0  0  0  0  0  0  0  0  0
  -14.4918  -70.2045  -18.8257 O   0  0  0  0  0  0  0  0  0  0  0  0
  -13.1161  -71.1619  -20.6420 N   0  0  0  0  0  0  0  0  0  0  0  0
  -11.7596  -71.0153  -21.1743 C   0  0  0  0  0  0  0  0  0  0  0  0
  -10.6384  -71.0975  -20.1603 C   0  0  0  0  0  0  0  0  0  0  0  0
  -10.8599  -71.4484  -18.8224 C   0  0  0  0  0  0  0  0  0  0  0  0
   -9.7812  -71.5523  -17.9554 C   0  0  0  0  0  0  0  0  0  0  0  0
   -8.5024  -71.3364  -18.3125 N   0  0  0  0  0  0  0  0  0  0  0  0
   -8.2982  -70.9917  -19.6004 C   0  0  0  0  0  0  0  0  0  0  0  0
   -9.3115  -70.8545  -20.5523 C   0  0  0  0  0  0  0  0  0  0  0  0
   -8.9208  -70.5051  -21.9502 C   0  0  0  0  0  0  0  0  0  0  0  0
  1  2  1  0
  2  3  1  0
  3  4  2  0
  3  5  2  0
  3  6  1  0
  6  7  1  0
  7  8  1  0
  8  9  2  0
  9 10  1  0
 10 11  2  0
 11 12  1  0
 12 13  2  0
 13 14  1  0
 13  8  1  0
M  END
>  <ref_mols>  (74) 
d0174a,d0615a

>  <fragmenstein_runtime>  (74) 
[2.3045759201049805]

>  <scratch_subdir>  (74) 
['/opt/xchem-fragalysis-2/maxwin/BulkDock/SCRATCH/211010/C850-P50']

>  <tags>  (74) 
['Fragmenstein placed']

>  <fragmenstein_mode>  (74) 
['expansion']

>  <SLURM_JOB_NAME>  (74) 
BulkDock.place:Flavi_NS5_RdRp:RdRp_knitwork_thumb_site_2_pure_split4000_batch000

>  <HIPPO Pose ID>  (74) 
50578

>  <exports>  (74) 
['/opt/xchem-fragalysis-2/maxwin/BulkDock/OUTPUTS/RdRp_knitwork_thumb_site_2_pure_split4000_batch000_211010.sdf', '/opt/xchem-fragalysis-2/maxwin/BulkDock/OUTPUTS/RdRp_knitwork_thumb_site_2_pure_fragalysis.sdf']

>  <inchikey>  (74) 
JSMASCHCFMRBQP-UHFFFAOYSA-N

>  <csv_name>  (74) 
RdRp_knitwork_thumb_site_2_pure_split4000_batch000.csv

>  <alias>  (74) 
None

>  <fragmenstein_error>  (74) 
['']

>  <SLURM_JOB_ID>  (74) 
211010

>  <original SMILES>  (74) 
CCS(=O)(=O)NCc1ccncc1C

>  <name>  (74) 
JSMASCHCFMRBQP-UHFFFAOYSA-N

>  <ref_pdb>  (74) 
d0615a

>  <original ID>  (74) 
JSMASCHCFMRBQP-UHFFFAOYSA-N

>  <energy_score>  (74) 
-33.257943

>  <fragmenstein_outcome>  (74) 
['acceptable']

>  <HIPPO Compound ID>  (74) 
850

>  <distance_score>  (74) 
0.656089

$$$$
50581
     RDKit          3D

 14 14  0  0  0  0  0  0  0  0999 V2000
  -14.6252  -69.4831  -22.6922 C   0  0  0  0  0  0  0  0  0  0  0  0
  -15.1556  -69.6277  -21.2798 C   0  0  0  0  0  0  0  0  0  0  0  0
  -13.8654  -69.7920  -20.0495 S   0  0  0  0  0  0  0  0  0  0  0  0
  -12.9382  -68.6964  -20.1922 O   0  0  0  0  0  0  0  0  0  0  0  0
  -14.4901  -70.0867  -18.7745 O   0  0  0  0  0  0  0  0  0  0  0  0
  -13.1149  -71.2196  -20.5041 N   0  0  0  0  0  0  0  0  0  0  0  0
  -11.8103  -71.0918  -21.1935 C   0  0  0  0  0  0  0  0  0  0  0  0
  -10.6371  -71.1997  -20.2338 C   0  0  0  0  0  0  0  0  0  0  0  0
  -10.9139  -71.7126  -18.9991 N   0  0  0  0  0  0  0  0  0  0  0  0
   -9.8793  -71.8822  -18.1465 C   0  0  0  0  0  0  0  0  0  0  0  0
   -8.5666  -71.5802  -18.4548 C   0  0  0  0  0  0  0  0  0  0  0  0
   -8.2957  -71.0711  -19.7164 C   0  0  0  0  0  0  0  0  0  0  0  0
   -9.3385  -70.8727  -20.6300 C   0  0  0  0  0  0  0  0  0  0  0  0
   -9.0038  -70.4128  -22.0086 C   0  0  0  0  0  0  0  0  0  0  0  0
  1  2  1  0
  2  3  1  0
  3  4  2  0
  3  5  2  0
  3  6  1  0
  6  7  1  0
  7  8  1  0
  8  9  2  0
  9 10  1  0
 10 11  2  0
 11 12  1  0
 12 13  2  0
 13 14  1  0
 13  8  1  0
M  END
>  <ref_mols>  (75) 
d0174a,d0615a

>  <fragmenstein_runtime>  (75) 
[1.5768444538116455]

>  <scratch_subdir>  (75) 
['/opt/xchem-fragalysis-2/maxwin/BulkDock/SCRATCH/211010/C852-P50']

>  <tags>  (75) 
['Fragmenstein placed']

>  <fragmenstein_mode>  (75) 
['expansion']

>  <SLURM_JOB_NAME>  (75) 
BulkDock.place:Flavi_NS5_RdRp:RdRp_knitwork_thumb_site_2_pure_split4000_batch000

>  <HIPPO Pose ID>  (75) 
50581

>  <exports>  (75) 
['/opt/xchem-fragalysis-2/maxwin/BulkDock/OUTPUTS/RdRp_knitwork_thumb_site_2_pure_split4000_batch000_211010.sdf', '/opt/xchem-fragalysis-2/maxwin/BulkDock/OUTPUTS/RdRp_knitwork_thumb_site_2_pure_fragalysis.sdf']

>  <inchikey>  (75) 
YCSYUEQAYOMAGE-UHFFFAOYSA-N

>  <csv_name>  (75) 
RdRp_knitwork_thumb_site_2_pure_split4000_batch000.csv

>  <alias>  (75) 
None

>  <fragmenstein_error>  (75) 
['']

>  <SLURM_JOB_ID>  (75) 
211010

>  <original SMILES>  (75) 
CCS(=O)(=O)NCc1ncccc1C

>  <name>  (75) 
YCSYUEQAYOMAGE-UHFFFAOYSA-N

>  <ref_pdb>  (75) 
d0615a

>  <original ID>  (75) 
YCSYUEQAYOMAGE-UHFFFAOYSA-N

>  <energy_score>  (75) 
-42.845081

>  <fragmenstein_outcome>  (75) 
['acceptable']

>  <HIPPO Compound ID>  (75) 
852

>  <distance_score>  (75) 
0.677757

$$$$
50585
     RDKit          3D

 15 15  0  0  0  0  0  0  0  0999 V2000
  -14.6819  -69.4825  -22.6621 C   0  0  0  0  0  0  0  0  0  0  0  0
  -15.2002  -69.6167  -21.2441 C   0  0  0  0  0  0  0  0  0  0  0  0
  -13.9042  -69.7706  -20.0182 S   0  0  0  0  0  0  0  0  0  0  0  0
  -12.9686  -68.6860  -20.1854 O   0  0  0  0  0  0  0  0  0  0  0  0
  -14.5244  -70.0394  -18.7358 O   0  0  0  0  0  0  0  0  0  0  0  0
  -13.1642  -71.2100  -20.4449 N   0  0  0  0  0  0  0  0  0  0  0  0
  -11.9213  -71.1040  -21.2368 C   0  0  0  0  0  0  0  0  0  0  0  0
  -10.6718  -71.2174  -20.3829 C   0  0  0  0  0  0  0  0  0  0  0  0
  -10.8362  -71.7126  -19.1225 N   0  0  0  0  0  0  0  0  0  0  0  0
   -9.7223  -71.8932  -18.3745 C   0  0  0  0  0  0  0  0  0  0  0  0
   -8.4354  -71.6071  -18.8069 C   0  0  0  0  0  0  0  0  0  0  0  0
   -7.2326  -71.8907  -17.9688 C   0  0  0  0  0  0  0  0  0  0  0  0
   -8.2925  -71.1110  -20.0988 C   0  0  0  0  0  0  0  0  0  0  0  0
   -9.4162  -70.9151  -20.9088 C   0  0  0  0  0  0  0  0  0  0  0  0
   -9.2108  -70.4736  -22.3180 C   0  0  0  0  0  0  0  0  0  0  0  0
  1  2  1  0
  2  3  1  0
  3  4  2  0
  3  5  2  0
  3  6  1  0
  6  7  1  0
  7  8  1  0
  8  9  2  0
  9 10  1  0
 10 11  2  0
 11 12  1  0
 11 13  1  0
 13 14  2  0
 14 15  1  0
 14  8  1  0
M  END
>  <ref_mols>  (76) 
d0174a,d0615a

>  <fragmenstein_runtime>  (76) 
[1.4566524028778076]

>  <scratch_subdir>  (76) 
['/opt/xchem-fragalysis-2/maxwin/BulkDock/SCRATCH/211010/C856-P50']

>  <tags>  (76) 
['Fragmenstein placed']

>  <fragmenstein_mode>  (76) 
['expansion']

>  <SLURM_JOB_NAME>  (76) 
BulkDock.place:Flavi_NS5_RdRp:RdRp_knitwork_thumb_site_2_pure_split4000_batch000

>  <HIPPO Pose ID>  (76) 
50585

>  <exports>  (76) 
['/opt/xchem-fragalysis-2/maxwin/BulkDock/OUTPUTS/RdRp_knitwork_thumb_site_2_pure_split4000_batch000_211010.sdf', '/opt/xchem-fragalysis-2/maxwin/BulkDock/OUTPUTS/RdRp_knitwork_thumb_site_2_pure_fragalysis.sdf']

>  <inchikey>  (76) 
RWOAYQXMDLLTCN-UHFFFAOYSA-N

>  <csv_name>  (76) 
RdRp_knitwork_thumb_site_2_pure_split4000_batch000.csv

>  <alias>  (76) 
None

>  <fragmenstein_error>  (76) 
['']

>  <SLURM_JOB_ID>  (76) 
211010

>  <original SMILES>  (76) 
CCS(=O)(=O)NCc1ncc(C)cc1C

>  <name>  (76) 
RWOAYQXMDLLTCN-UHFFFAOYSA-N

>  <ref_pdb>  (76) 
d0615a

>  <original ID>  (76) 
RWOAYQXMDLLTCN-UHFFFAOYSA-N

>  <energy_score>  (76) 
-34.207058

>  <fragmenstein_outcome>  (76) 
['acceptable']

>  <HIPPO Compound ID>  (76) 
856

>  <distance_score>  (76) 
0.914108

$$$$
50590
     RDKit          3D

 15 15  0  0  0  0  0  0  0  0999 V2000
  -14.4883  -69.4912  -22.7563 C   0  0  0  0  0  0  0  0  0  0  0  0
  -15.0614  -69.5928  -21.3581 C   0  0  0  0  0  0  0  0  0  0  0  0
  -13.8186  -69.7915  -20.0883 S   0  0  0  0  0  0  0  0  0  0  0  0
  -12.8651  -68.7147  -20.1962 O   0  0  0  0  0  0  0  0  0  0  0  0
  -14.4984  -70.0718  -18.8380 O   0  0  0  0  0  0  0  0  0  0  0  0
  -13.0852  -71.2313  -20.5222 N   0  0  0  0  0  0  0  0  0  0  0  0
  -11.7532  -71.1333  -21.1621 C   0  0  0  0  0  0  0  0  0  0  0  0
  -10.6138  -71.2546  -20.1605 C   0  0  0  0  0  0  0  0  0  0  0  0
  -10.9319  -71.8348  -18.9689 N   0  0  0  0  0  0  0  0  0  0  0  0
   -9.9248  -72.0631  -18.1024 C   0  0  0  0  0  0  0  0  0  0  0  0
   -8.6001  -71.7591  -18.3574 C   0  0  0  0  0  0  0  0  0  0  0  0
   -8.2677  -71.1692  -19.5771 C   0  0  0  0  0  0  0  0  0  0  0  0
   -6.8214  -70.8747  -19.8745 C   0  0  0  0  0  0  0  0  0  0  0  0
   -9.3001  -70.8945  -20.4977 C   0  0  0  0  0  0  0  0  0  0  0  0
   -9.0041  -70.3065  -21.8391 C   0  0  0  0  0  0  0  0  0  0  0  0
  1  2  1  0
  2  3  1  0
  3  4  2  0
  3  5  2  0
  3  6  1  0
  6  7  1  0
  7  8  1  0
  8  9  2  0
  9 10  1  0
 10 11  2  0
 11 12  1  0
 12 13  1  0
 12 14  2  0
 14 15  1  0
 14  8  1  0
M  END
>  <ref_mols>  (77) 
d0174a,d0615a

>  <fragmenstein_runtime>  (77) 
[1.3654489517211914]

>  <scratch_subdir>  (77) 
['/opt/xchem-fragalysis-2/maxwin/BulkDock/SCRATCH/211010/C860-P17']

>  <tags>  (77) 
['Fragmenstein placed']

>  <fragmenstein_mode>  (77) 
['expansion']

>  <SLURM_JOB_NAME>  (77) 
BulkDock.place:Flavi_NS5_RdRp:RdRp_knitwork_thumb_site_2_pure_split4000_batch000

>  <HIPPO Pose ID>  (77) 
50590

>  <exports>  (77) 
['/opt/xchem-fragalysis-2/maxwin/BulkDock/OUTPUTS/RdRp_knitwork_thumb_site_2_pure_split4000_batch000_211010.sdf', '/opt/xchem-fragalysis-2/maxwin/BulkDock/OUTPUTS/RdRp_knitwork_thumb_site_2_pure_fragalysis.sdf']

>  <inchikey>  (77) 
XLJCDDJXXDVXHC-UHFFFAOYSA-N

>  <csv_name>  (77) 
RdRp_knitwork_thumb_site_2_pure_split4000_batch000.csv

>  <alias>  (77) 
None

>  <fragmenstein_error>  (77) 
['']

>  <SLURM_JOB_ID>  (77) 
211010

>  <original SMILES>  (77) 
CCS(=O)(=O)NCc1nccc(C)c1C

>  <name>  (77) 
XLJCDDJXXDVXHC-UHFFFAOYSA-N

>  <ref_pdb>  (77) 
d0174a

>  <original ID>  (77) 
XLJCDDJXXDVXHC-UHFFFAOYSA-N

>  <energy_score>  (77) 
-30.372225

>  <fragmenstein_outcome>  (77) 
['acceptable']

>  <HIPPO Compound ID>  (77) 
860

>  <distance_score>  (77) 
0.768031

$$$$
50593
     RDKit          3D

 15 15  0  0  0  0  0  0  0  0999 V2000
  -14.6409  -69.4682  -22.6900 C   0  0  0  0  0  0  0  0  0  0  0  0
  -15.1663  -69.6190  -21.2761 C   0  0  0  0  0  0  0  0  0  0  0  0
  -13.8704  -69.7823  -20.0522 S   0  0  0  0  0  0  0  0  0  0  0  0
  -12.9536  -68.6779  -20.1929 O   0  0  0  0  0  0  0  0  0  0  0  0
  -14.4874  -70.0932  -18.7777 O   0  0  0  0  0  0  0  0  0  0  0  0
  -13.1116  -71.2005  -20.5272 N   0  0  0  0  0  0  0  0  0  0  0  0
  -11.7946  -71.0536  -21.1911 C   0  0  0  0  0  0  0  0  0  0  0  0
  -10.6354  -71.1812  -20.2159 C   0  0  0  0  0  0  0  0  0  0  0  0
  -10.9518  -71.6736  -18.9837 N   0  0  0  0  0  0  0  0  0  0  0  0
   -9.9425  -71.8549  -18.1087 C   0  0  0  0  0  0  0  0  0  0  0  0
   -8.6177  -71.5817  -18.3909 C   0  0  0  0  0  0  0  0  0  0  0  0
   -8.2884  -71.0866  -19.6529 C   0  0  0  0  0  0  0  0  0  0  0  0
   -6.8429  -70.8216  -19.9769 C   0  0  0  0  0  0  0  0  0  0  0  0
   -9.3185  -70.8897  -20.5970 C   0  0  0  0  0  0  0  0  0  0  0  0
   -8.9862  -70.4598  -21.9910 C   0  0  0  0  0  0  0  0  0  0  0  0
  1  2  1  0
  2  3  1  0
  3  4  2  0
  3  5  2  0
  3  6  1  0
  6  7  1  0
  7  8  1  0
  8  9  2  0
  9 10  1  0
 10 11  2  0
 11 12  1  0
 12 13  1  0
 12 14  2  0
 14 15  1  0
 14  8  1  0
M  END
>  <ref_mols>  (78) 
d0174a,d0615a

>  <fragmenstein_runtime>  (78) 
[1.5848345756530762]

>  <scratch_subdir>  (78) 
['/opt/xchem-fragalysis-2/maxwin/BulkDock/SCRATCH/211010/C860-P50']

>  <tags>  (78) 
['Fragmenstein placed']

>  <fragmenstein_mode>  (78) 
['expansion']

>  <SLURM_JOB_NAME>  (78) 
BulkDock.place:Flavi_NS5_RdRp:RdRp_knitwork_thumb_site_2_pure_split4000_batch000

>  <HIPPO Pose ID>  (78) 
50593

>  <exports>  (78) 
['/opt/xchem-fragalysis-2/maxwin/BulkDock/OUTPUTS/RdRp_knitwork_thumb_site_2_pure_split4000_batch000_211010.sdf', '/opt/xchem-fragalysis-2/maxwin/BulkDock/OUTPUTS/RdRp_knitwork_thumb_site_2_pure_fragalysis.sdf']

>  <inchikey>  (78) 
XLJCDDJXXDVXHC-UHFFFAOYSA-N

>  <csv_name>  (78) 
RdRp_knitwork_thumb_site_2_pure_split4000_batch000.csv

>  <alias>  (78) 
None

>  <fragmenstein_error>  (78) 
['']

>  <SLURM_JOB_ID>  (78) 
211010

>  <original SMILES>  (78) 
CCS(=O)(=O)NCc1nccc(C)c1C

>  <name>  (78) 
XLJCDDJXXDVXHC-UHFFFAOYSA-N

>  <ref_pdb>  (78) 
d0615a

>  <original ID>  (78) 
XLJCDDJXXDVXHC-UHFFFAOYSA-N

>  <energy_score>  (78) 
-30.348316

>  <fragmenstein_outcome>  (78) 
['acceptable']

>  <HIPPO Compound ID>  (78) 
860

>  <distance_score>  (78) 
0.698854

$$$$
50611
     RDKit          3D

 15 15  0  0  0  0  0  0  0  0999 V2000
  -14.6586  -69.4235  -22.6841 C   0  0  0  0  0  0  0  0  0  0  0  0
  -15.2108  -69.6203  -21.2866 C   0  0  0  0  0  0  0  0  0  0  0  0
  -13.9419  -69.7338  -20.0284 S   0  0  0  0  0  0  0  0  0  0  0  0
  -13.0915  -68.5734  -20.0981 O   0  0  0  0  0  0  0  0  0  0  0  0
  -14.5553  -70.1368  -18.7793 O   0  0  0  0  0  0  0  0  0  0  0  0
  -13.0612  -71.0609  -20.4987 N   0  0  0  0  0  0  0  0  0  0  0  0
  -11.8087  -70.8669  -21.2235 C   0  0  0  0  0  0  0  0  0  0  0  0
  -10.5546  -71.0919  -20.4184 C   0  0  0  0  0  0  0  0  0  0  0  0
  -10.5265  -71.0168  -19.0273 C   0  0  0  0  0  0  0  0  0  0  0  0
   -9.4308  -71.2433  -18.2608 N   0  0  0  0  0  0  0  0  0  0  0  0
   -8.2737  -71.5093  -18.9049 C   0  0  0  0  0  0  0  0  0  0  0  0
   -7.0540  -71.7601  -18.0743 C   0  0  0  0  0  0  0  0  0  0  0  0
   -8.1798  -71.5368  -20.2888 C   0  0  0  0  0  0  0  0  0  0  0  0
   -9.3319  -71.3465  -21.0589 C   0  0  0  0  0  0  0  0  0  0  0  0
   -9.2247  -71.3924  -22.5521 C   0  0  0  0  0  0  0  0  0  0  0  0
  1  2  1  0
  2  3  1  0
  3  4  2  0
  3  5  2  0
  3  6  1  0
  6  7  1  0
  7  8  1  0
  8  9  2  0
  9 10  1  0
 10 11  2  0
 11 12  1  0
 11 13  1  0
 13 14  2  0
 14 15  1  0
 14  8  1  0
M  END
>  <ref_mols>  (79) 
d0174a,d0615a

>  <fragmenstein_runtime>  (79) 
[1.7871043682098389]

>  <scratch_subdir>  (79) 
['/opt/xchem-fragalysis-2/maxwin/BulkDock/SCRATCH/211010/C885-P50']

>  <tags>  (79) 
['Fragmenstein placed']

>  <fragmenstein_mode>  (79) 
['expansion']

>  <SLURM_JOB_NAME>  (79) 
BulkDock.place:Flavi_NS5_RdRp:RdRp_knitwork_thumb_site_2_pure_split4000_batch000

>  <HIPPO Pose ID>  (79) 
50611

>  <exports>  (79) 
['/opt/xchem-fragalysis-2/maxwin/BulkDock/OUTPUTS/RdRp_knitwork_thumb_site_2_pure_split4000_batch000_211010.sdf', '/opt/xchem-fragalysis-2/maxwin/BulkDock/OUTPUTS/RdRp_knitwork_thumb_site_2_pure_fragalysis.sdf']

>  <inchikey>  (79) 
CZXIYJPCHZSMDX-UHFFFAOYSA-N

>  <csv_name>  (79) 
RdRp_knitwork_thumb_site_2_pure_split4000_batch000.csv

>  <alias>  (79) 
None

>  <fragmenstein_error>  (79) 
['']

>  <SLURM_JOB_ID>  (79) 
211010

>  <original SMILES>  (79) 
CCS(=O)(=O)NCc1cnc(C)cc1C

>  <name>  (79) 
CZXIYJPCHZSMDX-UHFFFAOYSA-N

>  <ref_pdb>  (79) 
d0615a

>  <original ID>  (79) 
CZXIYJPCHZSMDX-UHFFFAOYSA-N

>  <energy_score>  (79) 
-28.004284

>  <fragmenstein_outcome>  (79) 
['acceptable']

>  <HIPPO Compound ID>  (79) 
885

>  <distance_score>  (79) 
0.773801

$$$$
50612
     RDKit          3D

 14 14  0  0  0  0  0  0  0  0999 V2000
  -14.6174  -69.4762  -22.6797 C   0  0  0  0  0  0  0  0  0  0  0  0
  -15.1490  -69.5942  -21.2655 C   0  0  0  0  0  0  0  0  0  0  0  0
  -13.8632  -69.7973  -20.0354 S   0  0  0  0  0  0  0  0  0  0  0  0
  -12.8990  -68.7337  -20.1757 O   0  0  0  0  0  0  0  0  0  0  0  0
  -14.4928  -70.0750  -18.7593 O   0  0  0  0  0  0  0  0  0  0  0  0
  -13.1529  -71.2455  -20.4846 N   0  0  0  0  0  0  0  0  0  0  0  0
  -11.8553  -71.1567  -21.1910 C   0  0  0  0  0  0  0  0  0  0  0  0
  -10.6709  -71.2418  -20.2461 C   0  0  0  0  0  0  0  0  0  0  0  0
  -10.8869  -71.8315  -19.0313 N   0  0  0  0  0  0  0  0  0  0  0  0
   -9.8153  -71.9788  -18.2179 C   0  0  0  0  0  0  0  0  0  0  0  0
   -8.5303  -71.5785  -18.5482 C   0  0  0  0  0  0  0  0  0  0  0  0
   -8.3252  -70.9872  -19.7892 C   0  0  0  0  0  0  0  0  0  0  0  0
   -9.4067  -70.8217  -20.6500 C   0  0  0  0  0  0  0  0  0  0  0  0
   -9.1515  -70.1361  -22.1915 Cl  0  0  0  0  0  0  0  0  0  0  0  0
  1  2  1  0
  2  3  1  0
  3  4  2  0
  3  5  2  0
  3  6  1  0
  6  7  1  0
  7  8  1  0
  8  9  2  0
  9 10  1  0
 10 11  2  0
 11 12  1  0
 12 13  2  0
 13 14  1  0
 13  8  1  0
M  END
>  <ref_mols>  (80) 
d0174a,d0615a

>  <fragmenstein_runtime>  (80) 
[1.9695119857788086]

>  <scratch_subdir>  (80) 
['/opt/xchem-fragalysis-2/maxwin/BulkDock/SCRATCH/211010/C886-P50']

>  <tags>  (80) 
['Fragmenstein placed']

>  <fragmenstein_mode>  (80) 
['expansion']

>  <SLURM_JOB_NAME>  (80) 
BulkDock.place:Flavi_NS5_RdRp:RdRp_knitwork_thumb_site_2_pure_split4000_batch000

>  <HIPPO Pose ID>  (80) 
50612

>  <exports>  (80) 
['/opt/xchem-fragalysis-2/maxwin/BulkDock/OUTPUTS/RdRp_knitwork_thumb_site_2_pure_split4000_batch000_211010.sdf', '/opt/xchem-fragalysis-2/maxwin/BulkDock/OUTPUTS/RdRp_knitwork_thumb_site_2_pure_fragalysis.sdf']

>  <inchikey>  (80) 
QXEWTLBETOJJBD-UHFFFAOYSA-N

>  <csv_name>  (80) 
RdRp_knitwork_thumb_site_2_pure_split4000_batch000.csv

>  <alias>  (80) 
None

>  <fragmenstein_error>  (80) 
['']

>  <SLURM_JOB_ID>  (80) 
211010

>  <original SMILES>  (80) 
CCS(=O)(=O)NCc1ncccc1Cl

>  <name>  (80) 
QXEWTLBETOJJBD-UHFFFAOYSA-N

>  <ref_pdb>  (80) 
d0615a

>  <original ID>  (80) 
QXEWTLBETOJJBD-UHFFFAOYSA-N

>  <energy_score>  (80) 
-41.158325

>  <fragmenstein_outcome>  (80) 
['acceptable']

>  <HIPPO Compound ID>  (80) 
886

>  <distance_score>  (80) 
0.801976

$$$$
50614
     RDKit          3D

 14 14  0  0  0  0  0  0  0  0999 V2000
  -14.6342  -69.4153  -22.6921 C   0  0  0  0  0  0  0  0  0  0  0  0
  -15.1664  -69.5394  -21.2783 C   0  0  0  0  0  0  0  0  0  0  0  0
  -13.8803  -69.8049  -20.0609 S   0  0  0  0  0  0  0  0  0  0  0  0
  -12.9182  -68.7352  -20.1463 O   0  0  0  0  0  0  0  0  0  0  0  0
  -14.4963  -70.1618  -18.7978 O   0  0  0  0  0  0  0  0  0  0  0  0
  -13.1726  -71.2215  -20.5877 N   0  0  0  0  0  0  0  0  0  0  0  0
  -11.8288  -71.1592  -21.1666 C   0  0  0  0  0  0  0  0  0  0  0  0
  -10.6891  -71.1971  -20.1737 C   0  0  0  0  0  0  0  0  0  0  0  0
  -10.8348  -71.6924  -18.8710 C   0  0  0  0  0  0  0  0  0  0  0  0
   -9.7244  -71.7528  -18.0366 C   0  0  0  0  0  0  0  0  0  0  0  0
   -8.4848  -71.3662  -18.3990 N   0  0  0  0  0  0  0  0  0  0  0  0
   -8.3543  -70.8929  -19.6600 C   0  0  0  0  0  0  0  0  0  0  0  0
   -9.4070  -70.7945  -20.5622 C   0  0  0  0  0  0  0  0  0  0  0  0
   -9.1095  -70.1975  -22.1353 Cl  0  0  0  0  0  0  0  0  0  0  0  0
  1  2  1  0
  2  3  1  0
  3  4  2  0
  3  5  2  0
  3  6  1  0
  6  7  1  0
  7  8  1  0
  8  9  2  0
  9 10  1  0
 10 11  2  0
 11 12  1  0
 12 13  2  0
 13 14  1  0
 13  8  1  0
M  END
>  <ref_mols>  (81) 
d0174a,d0615a

>  <fragmenstein_runtime>  (81) 
[1.2955694198608398]

>  <scratch_subdir>  (81) 
['/opt/xchem-fragalysis-2/maxwin/BulkDock/SCRATCH/211010/C890-P50']

>  <tags>  (81) 
['Fragmenstein placed']

>  <fragmenstein_mode>  (81) 
['expansion']

>  <SLURM_JOB_NAME>  (81) 
BulkDock.place:Flavi_NS5_RdRp:RdRp_knitwork_thumb_site_2_pure_split4000_batch000

>  <HIPPO Pose ID>  (81) 
50614

>  <exports>  (81) 
['/opt/xchem-fragalysis-2/maxwin/BulkDock/OUTPUTS/RdRp_knitwork_thumb_site_2_pure_split4000_batch000_211010.sdf', '/opt/xchem-fragalysis-2/maxwin/BulkDock/OUTPUTS/RdRp_knitwork_thumb_site_2_pure_fragalysis.sdf']

>  <inchikey>  (81) 
XDGUIPBTSIDPMH-UHFFFAOYSA-N

>  <csv_name>  (81) 
RdRp_knitwork_thumb_site_2_pure_split4000_batch000.csv

>  <alias>  (81) 
None

>  <fragmenstein_error>  (81) 
['']

>  <SLURM_JOB_ID>  (81) 
211010

>  <original SMILES>  (81) 
CCS(=O)(=O)NCc1ccncc1Cl

>  <name>  (81) 
XDGUIPBTSIDPMH-UHFFFAOYSA-N

>  <ref_pdb>  (81) 
d0615a

>  <original ID>  (81) 
XDGUIPBTSIDPMH-UHFFFAOYSA-N

>  <energy_score>  (81) 
-30.408529

>  <fragmenstein_outcome>  (81) 
['acceptable']

>  <HIPPO Compound ID>  (81) 
890

>  <distance_score>  (81) 
0.706599

$$$$
50625
     RDKit          3D

 19 20  0  0  0  0  0  0  0  0999 V2000
  -14.4258  -69.4215  -22.8348 C   0  0  0  0  0  0  0  0  0  0  0  0
  -14.9894  -69.6455  -21.4477 C   0  0  0  0  0  0  0  0  0  0  0  0
  -13.7290  -69.8255  -20.1930 S   0  0  0  0  0  0  0  0  0  0  0  0
  -12.8804  -68.6618  -20.2063 O   0  0  0  0  0  0  0  0  0  0  0  0
  -14.3678  -70.2660  -18.9664 O   0  0  0  0  0  0  0  0  0  0  0  0
  -12.8621  -71.1468  -20.7353 N   0  0  0  0  0  0  0  0  0  0  0  0
  -11.4921  -70.9490  -21.2345 C   0  0  0  0  0  0  0  0  0  0  0  0
  -10.4018  -71.0827  -20.1977 C   0  0  0  0  0  0  0  0  0  0  0  0
  -10.6528  -71.2257  -18.8346 C   0  0  0  0  0  0  0  0  0  0  0  0
   -9.5788  -71.3135  -17.9662 C   0  0  0  0  0  0  0  0  0  0  0  0
   -8.2854  -71.2574  -18.3449 N   0  0  0  0  0  0  0  0  0  0  0  0
   -8.0266  -71.1318  -19.6643 C   0  0  0  0  0  0  0  0  0  0  0  0
   -6.7011  -71.0753  -20.1105 N   0  0  0  0  0  0  0  0  0  0  0  0
   -5.7417  -70.5856  -19.1153 C   0  0  0  0  0  0  0  0  0  0  0  0
   -4.3834  -70.2999  -19.8049 C   0  0  0  0  0  0  0  0  0  0  0  0
   -3.9700  -71.2641  -20.8387 N   0  0  0  0  0  0  0  0  0  0  0  0
   -4.7264  -72.5141  -20.7328 C   0  0  0  0  0  0  0  0  0  0  0  0
   -6.2713  -72.3414  -20.7492 C   0  0  0  0  0  0  0  0  0  0  0  0
   -9.0592  -71.0436  -20.6046 C   0  0  0  0  0  0  0  0  0  0  0  0
  1  2  1  0
  2  3  1  0
  3  4  2  0
  3  5  2  0
  3  6  1  0
  6  7  1  0
  7  8  1  0
  8  9  2  0
  9 10  1  0
 10 11  2  0
 11 12  1  0
 12 13  1  0
 13 14  1  0
 14 15  1  0
 15 16  1  0
 16 17  1  0
 17 18  1  0
 12 19  2  0
 19  8  1  0
 18 13  1  0
M  END
>  <ref_mols>  (82) 
d0174a,d0615a

>  <fragmenstein_runtime>  (82) 
[3.8646240234375]

>  <scratch_subdir>  (82) 
['/opt/xchem-fragalysis-2/maxwin/BulkDock/SCRATCH/211010/C905-P17']

>  <tags>  (82) 
['Fragmenstein placed']

>  <fragmenstein_mode>  (82) 
['expansion']

>  <SLURM_JOB_NAME>  (82) 
BulkDock.place:Flavi_NS5_RdRp:RdRp_knitwork_thumb_site_2_pure_split4000_batch000

>  <HIPPO Pose ID>  (82) 
50625

>  <exports>  (82) 
['/opt/xchem-fragalysis-2/maxwin/BulkDock/OUTPUTS/RdRp_knitwork_thumb_site_2_pure_split4000_batch000_211010.sdf', '/opt/xchem-fragalysis-2/maxwin/BulkDock/OUTPUTS/RdRp_knitwork_thumb_site_2_pure_fragalysis.sdf']

>  <inchikey>  (82) 
LGKJJFYTPFAYDN-UHFFFAOYSA-N

>  <csv_name>  (82) 
RdRp_knitwork_thumb_site_2_pure_split4000_batch000.csv

>  <alias>  (82) 
None

>  <fragmenstein_error>  (82) 
['']

>  <SLURM_JOB_ID>  (82) 
211010

>  <original SMILES>  (82) 
CCS(=O)(=O)NCc1ccnc(N2CCNCC2)c1

>  <name>  (82) 
LGKJJFYTPFAYDN-UHFFFAOYSA-N

>  <ref_pdb>  (82) 
d0174a

>  <original ID>  (82) 
LGKJJFYTPFAYDN-UHFFFAOYSA-N

>  <energy_score>  (82) 
-42.336182

>  <fragmenstein_outcome>  (82) 
['acceptable']

>  <HIPPO Compound ID>  (82) 
905

>  <distance_score>  (82) 
0.824686

$$$$
50628
     RDKit          3D

 19 20  0  0  0  0  0  0  0  0999 V2000
  -14.5469  -69.4390  -22.7861 C   0  0  0  0  0  0  0  0  0  0  0  0
  -15.0601  -69.7120  -21.3874 C   0  0  0  0  0  0  0  0  0  0  0  0
  -13.7518  -69.8602  -20.1750 S   0  0  0  0  0  0  0  0  0  0  0  0
  -12.9407  -68.6701  -20.2072 O   0  0  0  0  0  0  0  0  0  0  0  0
  -14.3287  -70.3368  -18.9317 O   0  0  0  0  0  0  0  0  0  0  0  0
  -12.8606  -71.1500  -20.7604 N   0  0  0  0  0  0  0  0  0  0  0  0
  -11.4900  -70.9112  -21.2408 C   0  0  0  0  0  0  0  0  0  0  0  0
  -10.4050  -71.0488  -20.1984 C   0  0  0  0  0  0  0  0  0  0  0  0
  -10.6633  -71.1954  -18.8369 C   0  0  0  0  0  0  0  0  0  0  0  0
   -9.5946  -71.2844  -17.9619 C   0  0  0  0  0  0  0  0  0  0  0  0
   -8.2991  -71.2243  -18.3324 N   0  0  0  0  0  0  0  0  0  0  0  0
   -8.0337  -71.0875  -19.6489 C   0  0  0  0  0  0  0  0  0  0  0  0
   -6.7063  -71.0149  -20.0870 N   0  0  0  0  0  0  0  0  0  0  0  0
   -5.7749  -70.4510  -19.1029 C   0  0  0  0  0  0  0  0  0  0  0  0
   -4.4106  -70.1711  -19.7825 C   0  0  0  0  0  0  0  0  0  0  0  0
   -3.9406  -71.2033  -20.7258 N   0  0  0  0  0  0  0  0  0  0  0  0
   -4.6917  -72.4516  -20.5715 C   0  0  0  0  0  0  0  0  0  0  0  0
   -6.2363  -72.2974  -20.6585 C   0  0  0  0  0  0  0  0  0  0  0  0
   -9.0598  -71.0030  -20.5965 C   0  0  0  0  0  0  0  0  0  0  0  0
  1  2  1  0
  2  3  1  0
  3  4  2  0
  3  5  2  0
  3  6  1  0
  6  7  1  0
  7  8  1  0
  8  9  2  0
  9 10  1  0
 10 11  2  0
 11 12  1  0
 12 13  1  0
 13 14  1  0
 14 15  1  0
 15 16  1  0
 16 17  1  0
 17 18  1  0
 12 19  2  0
 19  8  1  0
 18 13  1  0
M  END
>  <ref_mols>  (83) 
d0174a,d0615a

>  <fragmenstein_runtime>  (83) 
[3.3136556148529053]

>  <scratch_subdir>  (83) 
['/opt/xchem-fragalysis-2/maxwin/BulkDock/SCRATCH/211010/C905-P50']

>  <tags>  (83) 
['Fragmenstein placed']

>  <fragmenstein_mode>  (83) 
['expansion']

>  <SLURM_JOB_NAME>  (83) 
BulkDock.place:Flavi_NS5_RdRp:RdRp_knitwork_thumb_site_2_pure_split4000_batch000

>  <HIPPO Pose ID>  (83) 
50628

>  <exports>  (83) 
['/opt/xchem-fragalysis-2/maxwin/BulkDock/OUTPUTS/RdRp_knitwork_thumb_site_2_pure_split4000_batch000_211010.sdf', '/opt/xchem-fragalysis-2/maxwin/BulkDock/OUTPUTS/RdRp_knitwork_thumb_site_2_pure_fragalysis.sdf']

>  <inchikey>  (83) 
LGKJJFYTPFAYDN-UHFFFAOYSA-N

>  <csv_name>  (83) 
RdRp_knitwork_thumb_site_2_pure_split4000_batch000.csv

>  <alias>  (83) 
None

>  <fragmenstein_error>  (83) 
['']

>  <SLURM_JOB_ID>  (83) 
211010

>  <original SMILES>  (83) 
CCS(=O)(=O)NCc1ccnc(N2CCNCC2)c1

>  <name>  (83) 
LGKJJFYTPFAYDN-UHFFFAOYSA-N

>  <ref_pdb>  (83) 
d0615a

>  <original ID>  (83) 
LGKJJFYTPFAYDN-UHFFFAOYSA-N

>  <energy_score>  (83) 
-42.279245

>  <fragmenstein_outcome>  (83) 
['acceptable']

>  <HIPPO Compound ID>  (83) 
905

>  <distance_score>  (83) 
0.824205

$$$$
50640
     RDKit          3D

 14 14  0  0  0  0  0  0  0  0999 V2000
  -14.6006  -69.4550  -22.6938 C   0  0  0  0  0  0  0  0  0  0  0  0
  -15.1677  -69.6591  -21.3035 C   0  0  0  0  0  0  0  0  0  0  0  0
  -13.9111  -69.7523  -20.0312 S   0  0  0  0  0  0  0  0  0  0  0  0
  -13.0679  -68.5868  -20.1030 O   0  0  0  0  0  0  0  0  0  0  0  0
  -14.5351  -70.1483  -18.7849 O   0  0  0  0  0  0  0  0  0  0  0  0
  -13.0163  -71.0804  -20.4793 N   0  0  0  0  0  0  0  0  0  0  0  0
  -11.7288  -70.8833  -21.1426 C   0  0  0  0  0  0  0  0  0  0  0  0
  -10.5112  -71.0653  -20.2692 C   0  0  0  0  0  0  0  0  0  0  0  0
  -10.5526  -70.9501  -18.8799 C   0  0  0  0  0  0  0  0  0  0  0  0
   -9.4885  -71.1188  -18.0541 N   0  0  0  0  0  0  0  0  0  0  0  0
   -8.3022  -71.3625  -18.6428 C   0  0  0  0  0  0  0  0  0  0  0  0
   -8.1322  -71.4497  -20.0115 C   0  0  0  0  0  0  0  0  0  0  0  0
   -9.2511  -71.3131  -20.8413 C   0  0  0  0  0  0  0  0  0  0  0  0
   -9.0755  -71.4068  -22.3260 C   0  0  0  0  0  0  0  0  0  0  0  0
  1  2  1  0
  2  3  1  0
  3  4  2  0
  3  5  2  0
  3  6  1  0
  6  7  1  0
  7  8  1  0
  8  9  2  0
  9 10  1  0
 10 11  2  0
 11 12  1  0
 12 13  2  0
 13 14  1  0
 13  8  1  0
M  END
>  <ref_mols>  (84) 
d0174a,d0615a

>  <fragmenstein_runtime>  (84) 
[1.3582980632781982]

>  <scratch_subdir>  (84) 
['/opt/xchem-fragalysis-2/maxwin/BulkDock/SCRATCH/211010/C915-P50']

>  <tags>  (84) 
['Fragmenstein placed']

>  <fragmenstein_mode>  (84) 
['expansion']

>  <SLURM_JOB_NAME>  (84) 
BulkDock.place:Flavi_NS5_RdRp:RdRp_knitwork_thumb_site_2_pure_split4000_batch000

>  <HIPPO Pose ID>  (84) 
50640

>  <exports>  (84) 
['/opt/xchem-fragalysis-2/maxwin/BulkDock/OUTPUTS/RdRp_knitwork_thumb_site_2_pure_split4000_batch000_211010.sdf', '/opt/xchem-fragalysis-2/maxwin/BulkDock/OUTPUTS/RdRp_knitwork_thumb_site_2_pure_fragalysis.sdf']

>  <inchikey>  (84) 
BCMFRBFZBGDNRH-UHFFFAOYSA-N

>  <csv_name>  (84) 
RdRp_knitwork_thumb_site_2_pure_split4000_batch000.csv

>  <alias>  (84) 
None

>  <fragmenstein_error>  (84) 
['']

>  <SLURM_JOB_ID>  (84) 
211010

>  <original SMILES>  (84) 
CCS(=O)(=O)NCc1cnccc1C

>  <name>  (84) 
BCMFRBFZBGDNRH-UHFFFAOYSA-N

>  <ref_pdb>  (84) 
d0615a

>  <original ID>  (84) 
BCMFRBFZBGDNRH-UHFFFAOYSA-N

>  <energy_score>  (84) 
-26.981517

>  <fragmenstein_outcome>  (84) 
['acceptable']

>  <HIPPO Compound ID>  (84) 
915

>  <distance_score>  (84) 
0.896937

$$$$
50685
     RDKit          3D

 20 21  0  0  0  0  0  0  0  0999 V2000
  -14.5433  -69.4606  -22.7695 C   0  0  0  0  0  0  0  0  0  0  0  0
  -15.0400  -69.7098  -21.3618 C   0  0  0  0  0  0  0  0  0  0  0  0
  -13.7412  -69.8081  -20.1345 S   0  0  0  0  0  0  0  0  0  0  0  0
  -12.9055  -68.6384  -20.2241 O   0  0  0  0  0  0  0  0  0  0  0  0
  -14.3510  -70.1980  -18.8771 O   0  0  0  0  0  0  0  0  0  0  0  0
  -12.8469  -71.1301  -20.6170 N   0  0  0  0  0  0  0  0  0  0  0  0
  -11.6861  -70.8897  -21.4978 C   0  0  0  0  0  0  0  0  0  0  0  0
  -10.4072  -70.9489  -20.7441 C   0  0  0  0  0  0  0  0  0  0  0  0
  -10.1102  -71.5118  -19.5890 N   0  0  0  0  0  0  0  0  0  0  0  0
   -8.7382  -71.3446  -19.5361 C   0  0  0  0  0  0  0  0  0  0  0  0
   -8.0364  -71.9343  -18.4462 C   0  0  0  0  0  0  0  0  0  0  0  0
   -6.7146  -72.0187  -18.2029 C   0  0  0  0  0  0  0  0  0  0  0  0
   -5.5787  -71.4523  -18.9445 C   0  0  0  0  0  0  0  0  0  0  0  0
   -4.4168  -72.1976  -19.1373 C   0  0  0  0  0  0  0  0  0  0  0  0
   -3.3403  -71.6249  -19.8193 C   0  0  0  0  0  0  0  0  0  0  0  0
   -3.4486  -70.3204  -20.2746 C   0  0  0  0  0  0  0  0  0  0  0  0
   -4.6250  -69.6433  -20.0079 C   0  0  0  0  0  0  0  0  0  0  0  0
   -5.6761  -70.1717  -19.3404 N   0  0  0  0  0  0  0  0  0  0  0  0
   -8.2255  -70.7170  -20.5993 N   0  0  0  0  0  0  0  0  0  0  0  0
   -9.3251  -70.4363  -21.3905 O   0  0  0  0  0  0  0  0  0  0  0  0
  1  2  1  0
  2  3  1  0
  3  4  2  0
  3  5  2  0
  3  6  1  0
  6  7  1  0
  7  8  1  0
  8  9  2  0
  9 10  1  0
 10 11  1  0
 11 12  2  3
 12 13  1  0
 13 14  2  0
 14 15  1  0
 15 16  2  0
 16 17  1  0
 17 18  2  0
 10 19  2  0
 19 20  1  0
 20  8  1  0
 18 13  1  0
M  END
>  <ref_mols>  (85) 
d0174a,d0279a

>  <fragmenstein_runtime>  (85) 
[3.625948667526245]

>  <scratch_subdir>  (85) 
['/opt/xchem-fragalysis-2/maxwin/BulkDock/SCRATCH/211010/C7086-P17']

>  <tags>  (85) 
['Fragmenstein placed']

>  <fragmenstein_mode>  (85) 
['expansion']

>  <SLURM_JOB_NAME>  (85) 
BulkDock.place:Flavi_NS5_RdRp:RdRp_knitwork_thumb_site_2_pure_split4000_batch000

>  <HIPPO Pose ID>  (85) 
50685

>  <exports>  (85) 
['/opt/xchem-fragalysis-2/maxwin/BulkDock/OUTPUTS/RdRp_knitwork_thumb_site_2_pure_split4000_batch000_211010.sdf', '/opt/xchem-fragalysis-2/maxwin/BulkDock/OUTPUTS/RdRp_knitwork_thumb_site_2_pure_fragalysis.sdf']

>  <inchikey>  (85) 
SOAXBWFYKSDZCI-UHFFFAOYSA-N

>  <csv_name>  (85) 
RdRp_knitwork_thumb_site_2_pure_split4000_batch000.csv

>  <alias>  (85) 
None

>  <fragmenstein_error>  (85) 
['']

>  <SLURM_JOB_ID>  (85) 
211010

>  <original SMILES>  (85) 
CCS(=O)(=O)NCc1nc(C=Cc2ccccn2)no1

>  <name>  (85) 
SOAXBWFYKSDZCI-UHFFFAOYSA-N

>  <ref_pdb>  (85) 
d0174a

>  <original ID>  (85) 
SOAXBWFYKSDZCI-UHFFFAOYSA-N

>  <energy_score>  (85) 
-43.270056

>  <fragmenstein_outcome>  (85) 
['acceptable']

>  <HIPPO Compound ID>  (85) 
7086

>  <distance_score>  (85) 
0.957776

$$$$
50687
     RDKit          3D

 20 21  0  0  0  0  0  0  0  0999 V2000
  -14.6221  -69.5876  -22.7008 C   0  0  0  0  0  0  0  0  0  0  0  0
  -15.1030  -69.7890  -21.2799 C   0  0  0  0  0  0  0  0  0  0  0  0
  -13.7810  -69.8504  -20.0739 S   0  0  0  0  0  0  0  0  0  0  0  0
  -12.9663  -68.6692  -20.1974 O   0  0  0  0  0  0  0  0  0  0  0  0
  -14.3587  -70.2360  -18.8009 O   0  0  0  0  0  0  0  0  0  0  0  0
  -12.8741  -71.1648  -20.5587 N   0  0  0  0  0  0  0  0  0  0  0  0
  -11.7088  -70.9093  -21.4290 C   0  0  0  0  0  0  0  0  0  0  0  0
  -10.4371  -70.9365  -20.6616 C   0  0  0  0  0  0  0  0  0  0  0  0
  -10.1116  -71.5741  -19.5540 N   0  0  0  0  0  0  0  0  0  0  0  0
   -8.7519  -71.3305  -19.4749 C   0  0  0  0  0  0  0  0  0  0  0  0
   -8.0180  -71.9741  -18.4383 C   0  0  0  0  0  0  0  0  0  0  0  0
   -6.6906  -72.0514  -18.2235 C   0  0  0  0  0  0  0  0  0  0  0  0
   -5.5692  -71.4284  -18.9433 C   0  0  0  0  0  0  0  0  0  0  0  0
   -4.3957  -72.1432  -19.1800 C   0  0  0  0  0  0  0  0  0  0  0  0
   -3.3258  -71.5137  -19.8219 C   0  0  0  0  0  0  0  0  0  0  0  0
   -3.4502  -70.1834  -20.1916 C   0  0  0  0  0  0  0  0  0  0  0  0
   -4.6374  -69.5413  -19.8885 C   0  0  0  0  0  0  0  0  0  0  0  0
   -5.6852  -70.1296  -19.2642 N   0  0  0  0  0  0  0  0  0  0  0  0
   -8.2769  -70.5778  -20.4709 N   0  0  0  0  0  0  0  0  0  0  0  0
   -9.3879  -70.2991  -21.2464 O   0  0  0  0  0  0  0  0  0  0  0  0
  1  2  1  0
  2  3  1  0
  3  4  2  0
  3  5  2  0
  3  6  1  0
  6  7  1  0
  7  8  1  0
  8  9  2  0
  9 10  1  0
 10 11  1  0
 11 12  2  3
 12 13  1  0
 13 14  2  0
 14 15  1  0
 15 16  2  0
 16 17  1  0
 17 18  2  0
 10 19  2  0
 19 20  1  0
 20  8  1  0
 18 13  1  0
M  END
>  <ref_mols>  (86) 
d0174a,d0279a

>  <fragmenstein_runtime>  (86) 
[4.059603929519653]

>  <scratch_subdir>  (86) 
['/opt/xchem-fragalysis-2/maxwin/BulkDock/SCRATCH/211010/C7086-P29']

>  <tags>  (86) 
['Fragmenstein placed']

>  <fragmenstein_mode>  (86) 
['expansion']

>  <SLURM_JOB_NAME>  (86) 
BulkDock.place:Flavi_NS5_RdRp:RdRp_knitwork_thumb_site_2_pure_split4000_batch000

>  <HIPPO Pose ID>  (86) 
50687

>  <exports>  (86) 
['/opt/xchem-fragalysis-2/maxwin/BulkDock/OUTPUTS/RdRp_knitwork_thumb_site_2_pure_split4000_batch000_211010.sdf', '/opt/xchem-fragalysis-2/maxwin/BulkDock/OUTPUTS/RdRp_knitwork_thumb_site_2_pure_fragalysis.sdf']

>  <inchikey>  (86) 
SOAXBWFYKSDZCI-UHFFFAOYSA-N

>  <csv_name>  (86) 
RdRp_knitwork_thumb_site_2_pure_split4000_batch000.csv

>  <alias>  (86) 
None

>  <fragmenstein_error>  (86) 
['']

>  <SLURM_JOB_ID>  (86) 
211010

>  <original SMILES>  (86) 
CCS(=O)(=O)NCc1nc(C=Cc2ccccn2)no1

>  <name>  (86) 
SOAXBWFYKSDZCI-UHFFFAOYSA-N

>  <ref_pdb>  (86) 
d0279a

>  <original ID>  (86) 
SOAXBWFYKSDZCI-UHFFFAOYSA-N

>  <energy_score>  (86) 
-43.01581

>  <fragmenstein_outcome>  (86) 
['acceptable']

>  <HIPPO Compound ID>  (86) 
7086

>  <distance_score>  (86) 
0.969465

$$$$
50935
     RDKit          3D

 20 21  0  0  0  0  0  0  0  0999 V2000
  -11.2359  -71.5747  -23.9856 C   0  0  0  0  0  0  0  0  0  0  0  0
  -11.4682  -72.5785  -22.8746 C   0  0  0  0  0  0  0  0  0  0  0  0
  -12.5386  -71.9560  -21.5792 S   0  0  0  0  0  0  0  0  0  0  0  0
  -12.6445  -72.9503  -20.5306 O   0  0  0  0  0  0  0  0  0  0  0  0
  -13.7459  -71.4414  -22.1957 O   0  0  0  0  0  0  0  0  0  0  0  0
  -11.6650  -70.6161  -20.9763 N   0  0  0  0  0  0  0  0  0  0  0  0
  -12.5244  -69.6297  -20.2824 C   0  0  0  0  0  0  0  0  0  0  0  0
  -10.4128  -70.8921  -20.3213 C   0  0  0  0  0  0  0  0  0  0  0  0
  -10.3165  -71.6161  -19.1295 C   0  0  0  0  0  0  0  0  0  0  0  0
   -9.0736  -71.7824  -18.5050 C   0  0  0  0  0  0  0  0  0  0  0  0
   -7.9269  -71.2194  -19.0675 C   0  0  0  0  0  0  0  0  0  0  0  0
   -6.7464  -71.3335  -18.3656 O   0  0  0  0  0  0  0  0  0  0  0  0
   -5.6000  -71.5338  -19.1201 C   0  0  0  0  0  0  0  0  0  0  0  0
   -4.5016  -70.7216  -18.8744 C   0  0  0  0  0  0  0  0  0  0  0  0
   -3.3280  -70.9592  -19.5904 C   0  0  0  0  0  0  0  0  0  0  0  0
   -3.2874  -72.0122  -20.4966 C   0  0  0  0  0  0  0  0  0  0  0  0
   -4.4314  -72.7762  -20.6600 C   0  0  0  0  0  0  0  0  0  0  0  0
   -5.5886  -72.5575  -19.9993 N   0  0  0  0  0  0  0  0  0  0  0  0
   -8.0311  -70.4667  -20.2381 C   0  0  0  0  0  0  0  0  0  0  0  0
   -9.2700  -70.3011  -20.8586 C   0  0  0  0  0  0  0  0  0  0  0  0
  1  2  1  0
  2  3  1  0
  3  4  2  0
  3  5  2  0
  3  6  1  0
  6  7  1  0
  6  8  1  0
  8  9  2  0
  9 10  1  0
 10 11  2  0
 11 12  1  0
 12 13  1  0
 13 14  2  0
 14 15  1  0
 15 16  2  0
 16 17  1  0
 17 18  2  0
 11 19  1  0
 19 20  2  0
 20  8  1  0
 18 13  1  0
M  END
>  <ref_mols>  (87) 
d0174a,d0279a

>  <fragmenstein_runtime>  (87) 
[5.234680414199829]

>  <scratch_subdir>  (87) 
['/opt/xchem-fragalysis-2/maxwin/BulkDock/SCRATCH/211010/C7281-P29']

>  <tags>  (87) 
['Fragmenstein placed']

>  <fragmenstein_mode>  (87) 
['expansion']

>  <SLURM_JOB_NAME>  (87) 
BulkDock.place:Flavi_NS5_RdRp:RdRp_knitwork_thumb_site_2_pure_split4000_batch000

>  <HIPPO Pose ID>  (87) 
50935

>  <exports>  (87) 
['/opt/xchem-fragalysis-2/maxwin/BulkDock/OUTPUTS/RdRp_knitwork_thumb_site_2_pure_split4000_batch000_211010.sdf', '/opt/xchem-fragalysis-2/maxwin/BulkDock/OUTPUTS/RdRp_knitwork_thumb_site_2_pure_fragalysis.sdf']

>  <inchikey>  (87) 
PQAHUNBRMOWHPP-UHFFFAOYSA-N

>  <csv_name>  (87) 
RdRp_knitwork_thumb_site_2_pure_split4000_batch000.csv

>  <alias>  (87) 
None

>  <fragmenstein_error>  (87) 
['']

>  <SLURM_JOB_ID>  (87) 
211010

>  <original SMILES>  (87) 
CCS(=O)(=O)N(C)c1ccc(Oc2ccccn2)cc1

>  <name>  (87) 
PQAHUNBRMOWHPP-UHFFFAOYSA-N

>  <ref_pdb>  (87) 
d0279a

>  <original ID>  (87) 
PQAHUNBRMOWHPP-UHFFFAOYSA-N

>  <energy_score>  (87) 
-38.311434

>  <fragmenstein_outcome>  (87) 
['acceptable']

>  <HIPPO Compound ID>  (87) 
7281

>  <distance_score>  (87) 
0.885043

$$$$
50976
     RDKit          3D

 13 13  0  0  0  0  0  0  0  0999 V2000
  -14.5759  -69.6688  -22.7810 C   0  0  0  0  0  0  0  0  0  0  0  0
  -15.0771  -69.8523  -21.3664 C   0  0  0  0  0  0  0  0  0  0  0  0
  -13.7993  -69.8184  -20.1160 S   0  0  0  0  0  0  0  0  0  0  0  0
  -13.0305  -68.6070  -20.2749 O   0  0  0  0  0  0  0  0  0  0  0  0
  -14.4508  -70.1186  -18.8525 O   0  0  0  0  0  0  0  0  0  0  0  0
  -12.8133  -71.1384  -20.5593 N   0  0  0  0  0  0  0  0  0  0  0  0
  -11.6308  -70.8114  -21.3961 C   0  0  0  0  0  0  0  0  0  0  0  0
  -12.5399  -72.0838  -19.5067 C   0  0  0  0  0  0  0  0  0  0  0  0
  -12.8509  -73.4241  -19.7137 C   0  0  0  0  0  0  0  0  0  0  0  0
  -12.5395  -74.3574  -18.7273 C   0  0  0  0  0  0  0  0  0  0  0  0
  -11.9104  -73.9153  -17.5728 C   0  0  0  0  0  0  0  0  0  0  0  0
  -11.5756  -72.6250  -17.3453 N   0  0  0  0  0  0  0  0  0  0  0  0
  -11.8821  -71.7400  -18.3253 C   0  0  0  0  0  0  0  0  0  0  0  0
  1  2  1  0
  2  3  1  0
  3  4  2  0
  3  5  2  0
  3  6  1  0
  6  7  1  0
  6  8  1  0
  8  9  2  0
  9 10  1  0
 10 11  2  0
 11 12  1  0
 12 13  2  0
 13  8  1  0
M  END
>  <ref_mols>  (88) 
d0174a,d0279a

>  <fragmenstein_runtime>  (88) 
[1.715041160583496]

>  <scratch_subdir>  (88) 
['/opt/xchem-fragalysis-2/maxwin/BulkDock/SCRATCH/211010/C1345-P29']

>  <tags>  (88) 
['Fragmenstein placed']

>  <fragmenstein_mode>  (88) 
['expansion']

>  <SLURM_JOB_NAME>  (88) 
BulkDock.place:Flavi_NS5_RdRp:RdRp_knitwork_thumb_site_2_pure_split4000_batch000

>  <HIPPO Pose ID>  (88) 
50976

>  <exports>  (88) 
['/opt/xchem-fragalysis-2/maxwin/BulkDock/OUTPUTS/RdRp_knitwork_thumb_site_2_pure_split4000_batch000_211010.sdf', '/opt/xchem-fragalysis-2/maxwin/BulkDock/OUTPUTS/RdRp_knitwork_thumb_site_2_pure_fragalysis.sdf']

>  <inchikey>  (88) 
KUNYWHXFLWUFPB-UHFFFAOYSA-N

>  <csv_name>  (88) 
RdRp_knitwork_thumb_site_2_pure_split4000_batch000.csv

>  <alias>  (88) 
None

>  <fragmenstein_error>  (88) 
['']

>  <SLURM_JOB_ID>  (88) 
211010

>  <original SMILES>  (88) 
CCS(=O)(=O)N(C)c1cccnc1

>  <name>  (88) 
KUNYWHXFLWUFPB-UHFFFAOYSA-N

>  <ref_pdb>  (88) 
d0279a

>  <original ID>  (88) 
KUNYWHXFLWUFPB-UHFFFAOYSA-N

>  <energy_score>  (88) 
-34.412373

>  <fragmenstein_outcome>  (88) 
['acceptable']

>  <HIPPO Compound ID>  (88) 
1345

>  <distance_score>  (88) 
0.669055

$$$$
