ver_1.2
     RDKit          3D

 18 20  0  0  0  0  0  0  0  0999 V2000
    4.3137    1.9907    0.2845 C   0  0  0  0  0  0  0  0  0  0  0  0
    2.9625    1.9367   -0.1392 O   0  0  0  0  0  0  0  0  0  0  0  0
    2.3663    0.6815   -0.1015 C   0  0  0  0  0  0  0  0  0  0  0  0
    3.0844   -0.4190    0.3296 C   0  0  0  0  0  0  0  0  0  0  0  0
    2.4848   -1.6610    0.3638 C   0  0  0  0  0  0  0  0  0  0  0  0
    1.1718   -1.8395   -0.0249 C   0  0  0  0  0  0  0  0  0  0  0  0
    0.4366   -0.7534   -0.4590 C   0  0  0  0  0  0  0  0  0  0  0  0
    1.0354    0.4999   -0.4955 C   0  0  0  0  0  0  0  0  0  0  0  0
   -0.9766   -0.7194   -0.9186 C   0  0  0  0  0  0  0  0  0  0  0  0
   -1.7531    0.3350   -0.2226 C   0  0  0  0  0  0  0  0  0  0  0  0
   -1.7592    1.5744   -0.8283 C   0  0  0  0  0  0  0  0  0  0  0  0
   -2.4627    2.5996   -0.2324 C   0  0  0  0  0  0  0  0  0  0  0  0
   -3.1527    2.4467    0.9272 N   0  0  0  0  0  0  0  0  0  0  0  0
   -3.1423    1.2472    1.5065 C   0  0  0  0  0  0  0  0  0  0  0  0
   -2.4597    0.1770    0.9657 C   0  0  0  0  0  0  0  0  0  0  0  0
   -1.6435   -2.0434   -0.7659 C   0  0  0  0  0  0  0  0  0  0  0  0
   -0.9755   -2.9766    0.1952 C   0  0  0  0  0  0  0  0  0  0  0  0
    0.4699   -3.0766   -0.0245 N   0  0  0  0  0  0  0  0  0  0  0  0
  1  2  1  0
  2  3  1  0
  3  4  2  0
  4  5  1  0
  5  6  2  0
  6  7  1  0
  7  8  2  0
  7  9  1  0
  9 10  1  0
 10 11  2  0
 11 12  1  0
 12 13  2  0
 13 14  1  0
 14 15  2  0
  9 16  1  0
 16 17  1  0
 17 18  1  0
  8  3  1  0
 15 10  1  0
 18  6  1  0
M  END
>  <ref_url>  (1) 
https://github.com/mwinokan/BulkDock

>  <submitter_name>  (1) 
Max Winokan

>  <submitter_email>  (1) 
max.winokan@diamond.ac.uk

>  <submitter_institution>  (1) 
DLS

>  <generation_date>  (1) 
2024-12-12

>  <method>  (1) 
RdRp_knitwork_green_pure

>  <SLURM_JOB_ID>  (1) 
SLURM_JOB_ID

>  <SLURM_JOB_NAME>  (1) 
SLURM_JOB_NAME

>  <csv_name>  (1) 
csv_name

>  <scratch_subdir>  (1) 
scratch_subdir

>  <fragmenstein_runtime>  (1) 
fragmenstein_runtime

>  <fragmenstein_outcome>  (1) 
fragmenstein_outcome

>  <fragmenstein_mode>  (1) 
fragmenstein_mode

>  <fragmenstein_error>  (1) 
fragmenstein_error

>  <exports>  (1) 
exports

>  <HIPPO Pose ID>  (1) 
HIPPO Pose ID

>  <HIPPO Compound ID>  (1) 
HIPPO Compound ID

>  <smiles>  (1) 
smiles

>  <ref_pdb>  (1) 
protein reference

>  <ref_mols>  (1) 
fragment inspirations

>  <original ID>  (1) 
original ID

>  <compound inchikey>  (1) 
compound inchikey

$$$$
89134
     RDKit          3D

 18 20  0  0  0  0  0  0  0  0999 V2000
  -30.2605  -30.6765  -18.5164 C   0  0  0  0  0  0  0  0  0  0  0  0
  -29.0031  -30.0946  -18.1685 O   0  0  0  0  0  0  0  0  0  0  0  0
  -28.2176  -29.7514  -19.2330 C   0  0  0  0  0  0  0  0  0  0  0  0
  -28.3540  -30.3105  -20.4966 C   0  0  0  0  0  0  0  0  0  0  0  0
  -27.6084  -29.8074  -21.5499 C   0  0  0  0  0  0  0  0  0  0  0  0
  -26.6998  -28.7632  -21.3607 C   0  0  0  0  0  0  0  0  0  0  0  0
  -26.5195  -28.2167  -20.0812 C   0  0  0  0  0  0  0  0  0  0  0  0
  -27.2662  -28.7459  -19.0120 C   0  0  0  0  0  0  0  0  0  0  0  0
  -25.6782  -26.9740  -19.9091 C   0  0  1  0  0  0  0  0  0  0  0  0
  -24.3019  -27.0158  -19.3054 C   0  0  0  0  0  0  0  0  0  0  0  0
  -23.2092  -27.5497  -19.9525 C   0  0  0  0  0  0  0  0  0  0  0  0
  -21.9399  -27.0647  -19.6698 C   0  0  0  0  0  0  0  0  0  0  0  0
  -21.6750  -26.1070  -18.7916 N   0  0  0  0  0  0  0  0  0  0  0  0
  -22.7173  -25.7227  -18.0595 C   0  0  0  0  0  0  0  0  0  0  0  0
  -24.0232  -26.1656  -18.2601 C   0  0  0  0  0  0  0  0  0  0  0  0
  -25.4429  -26.2364  -21.2266 C   0  0  0  0  0  0  0  0  0  0  0  0
  -25.2031  -27.1215  -22.4271 C   0  0  0  0  0  0  0  0  0  0  0  0
  -26.1091  -28.2323  -22.4877 N   0  0  0  0  0  0  0  0  0  0  0  0
  1  2  1  0
  2  3  1  0
  3  4  2  0
  4  5  1  0
  5  6  2  0
  6  7  1  0
  7  8  2  0
  7  9  1  0
  9 10  1  6
 10 11  2  0
 11 12  1  0
 12 13  2  0
 13 14  1  0
 14 15  2  0
  9 16  1  0
 16 17  1  0
 17 18  1  0
  8  3  1  0
 15 10  1  0
 18  6  1  0
M  END
>  <HIPPO Pose ID>  (1) 
89134

>  <fragmenstein_outcome>  (1) 
acceptable

>  <energy_score>  (1) 
-3.267656

>  <distance_score>  (1) 
0.994321

>  <fragmenstein_mode>  (1) 
expansion

>  <HIPPO Compound ID>  (1) 
27130

>  <name>  (1) 
UBVDMFFWQJDCAG-CYBMUJFWSA-N

>  <ref_pdb>  (1) 
z0364a

>  <ref_mols>  (1) 
z0364a,z0386a

>  <csv_name>  (1) 
RdRp_knitwork_green_site_rna_tunnel_pure_split4000_batch016.csv

>  <fragmenstein_runtime>  (1) 
1.76713

>  <tags>  (1) 
['Fragmenstein placed']

>  <original ID>  (1) 
UBVDMFFWQJDCAG-CYBMUJFWSA-N

>  <fragmenstein_error>  (1) 
None

>  <original SMILES>  (1) 
COc1ccc2c(c1)[C@@H](c1ccncc1)CCN2

>  <inchikey>  (1) 
UBVDMFFWQJDCAG-CYBMUJFWSA-N

>  <SLURM_JOB_NAME>  (1) 
BulkDock.place:Flavi_NS5_RdRp:RdRp_knitwork_green_site_rna_tunnel_pure_split4000_batch016

>  <scratch_subdir>  (1) 
/opt/xchem-fragalysis-2/maxwin/BulkDock/SCRATCH/217087/C27130-P118

>  <alias>  (1) 
None

>  <SLURM_JOB_ID>  (1) 
217087

>  <exports>  (1) 
['/opt/xchem-fragalysis-2/maxwin/BulkDock/OUTPUTS/RdRp_knitwork_green_site_rna_tunnel_pure_split4000_batch016_217087.sdf']

$$$$
90011
     RDKit          3D

 20 22  0  0  0  0  0  0  0  0999 V2000
  -24.2536  -31.5836  -14.5505 C   0  0  0  0  0  0  0  0  0  0  0  0
  -23.4047  -32.8476  -14.4004 C   0  0  0  0  0  0  0  0  0  0  0  0
  -21.7389  -32.7415  -15.1612 S   0  0  0  0  0  0  0  0  0  0  0  0
  -22.1495  -32.8728  -16.8850 C   0  0  0  0  0  0  0  0  0  0  0  0
  -23.0305  -31.9649  -17.4580 C   0  0  0  0  0  0  0  0  0  0  0  0
  -23.4936  -32.1515  -18.7580 C   0  0  0  0  0  0  0  0  0  0  0  0
  -24.6307  -31.3564  -19.3659 C   0  0  0  0  0  0  0  0  0  0  0  0
  -25.0579  -30.2285  -18.5286 N   0  0  0  0  0  0  0  0  0  0  0  0
  -26.3441  -30.0789  -18.0084 C   0  0  0  0  0  0  0  0  0  0  0  0
  -26.5754  -29.7581  -16.7226 C   0  0  0  0  0  0  0  0  0  0  0  0
  -27.9954  -29.6734  -16.2978 C   0  0  0  0  0  0  0  0  0  0  0  0
  -29.0365  -29.7737  -17.0605 N   0  0  0  0  0  0  0  0  0  0  0  0
  -28.7775  -29.9929  -18.3832 C   0  0  0  0  0  0  0  0  0  0  0  0
  -29.6212  -30.0554  -19.3894 N   0  0  0  0  0  0  0  0  0  0  0  0
  -28.8192  -30.2187  -20.4712 C   0  0  0  0  0  0  0  0  0  0  0  0
  -27.5163  -30.3336  -20.2243 N   0  0  0  0  0  0  0  0  0  0  0  0
  -27.4702  -30.1707  -18.8686 N   0  0  0  0  0  0  0  0  0  0  0  0
  -22.9200  -33.1987  -19.4775 C   0  0  0  0  0  0  0  0  0  0  0  0
  -21.9852  -34.0173  -18.8540 C   0  0  0  0  0  0  0  0  0  0  0  0
  -21.5950  -33.8903  -17.5689 N   0  0  0  0  0  0  0  0  0  0  0  0
  1  2  1  0
  2  3  1  0
  3  4  1  0
  4  5  2  0
  5  6  1  0
  6  7  1  0
  7  8  1  0
  8  9  1  0
  9 10  2  0
 10 11  1  0
 11 12  2  0
 12 13  1  0
 13 14  2  0
 14 15  1  0
 15 16  2  0
 16 17  1  0
  6 18  2  0
 18 19  1  0
 19 20  2  0
 20  4  1  0
 17  9  1  0
 17 13  1  0
M  END
>  <HIPPO Pose ID>  (2) 
90011

>  <fragmenstein_outcome>  (2) 
acceptable

>  <energy_score>  (2) 
-57.452284

>  <distance_score>  (2) 
0.949801

>  <fragmenstein_mode>  (2) 
expansion

>  <HIPPO Compound ID>  (2) 
37289

>  <name>  (2) 
RGMTXXNFYIWLIC-UHFFFAOYSA-N

>  <ref_pdb>  (2) 
z0521a

>  <ref_mols>  (2) 
z0521a,z0637a

>  <csv_name>  (2) 
RdRp_knitwork_green_site_rna_tunnel_pure_split4000_batch011.csv

>  <fragmenstein_runtime>  (2) 
4.055598

>  <tags>  (2) 
['Fragmenstein placed']

>  <original ID>  (2) 
RGMTXXNFYIWLIC-UHFFFAOYSA-N

>  <fragmenstein_error>  (2) 
None

>  <original SMILES>  (2) 
CCSc1cc(CNc2ccnc3ncnn23)ccn1

>  <inchikey>  (2) 
RGMTXXNFYIWLIC-UHFFFAOYSA-N

>  <SLURM_JOB_NAME>  (2) 
BulkDock.place:Flavi_NS5_RdRp:RdRp_knitwork_green_site_rna_tunnel_pure_split4000_batch011

>  <scratch_subdir>  (2) 
/opt/xchem-fragalysis-2/maxwin/BulkDock/SCRATCH/217082/C37289-P141

>  <alias>  (2) 
None

>  <SLURM_JOB_ID>  (2) 
217082

>  <exports>  (2) 
['/opt/xchem-fragalysis-2/maxwin/BulkDock/OUTPUTS/RdRp_knitwork_green_site_rna_tunnel_pure_split4000_batch011_217082.sdf']

$$$$
90022
     RDKit          3D

 20 22  0  0  0  0  0  0  0  0999 V2000
  -24.1313  -31.3397  -14.4557 C   0  0  0  0  0  0  0  0  0  0  0  0
  -23.1829  -32.4619  -14.0435 C   0  0  0  0  0  0  0  0  0  0  0  0
  -21.5835  -32.5303  -14.9205 S   0  0  0  0  0  0  0  0  0  0  0  0
  -22.0873  -32.7589  -16.6149 C   0  0  0  0  0  0  0  0  0  0  0  0
  -22.8881  -31.8247  -17.2679 C   0  0  0  0  0  0  0  0  0  0  0  0
  -23.3788  -32.0780  -18.5517 C   0  0  0  0  0  0  0  0  0  0  0  0
  -24.3765  -31.1954  -19.2779 C   0  0  0  0  0  0  0  0  0  0  0  0
  -24.8953  -30.1014  -18.4551 N   0  0  0  0  0  0  0  0  0  0  0  0
  -26.2084  -29.9970  -17.9987 C   0  0  0  0  0  0  0  0  0  0  0  0
  -26.5051  -29.7888  -16.7050 C   0  0  0  0  0  0  0  0  0  0  0  0
  -27.9433  -29.6884  -16.3453 C   0  0  0  0  0  0  0  0  0  0  0  0
  -28.9456  -29.7049  -17.1634 N   0  0  0  0  0  0  0  0  0  0  0  0
  -28.6188  -29.8159  -18.4842 C   0  0  0  0  0  0  0  0  0  0  0  0
  -29.4086  -29.7412  -19.5315 N   0  0  0  0  0  0  0  0  0  0  0  0
  -28.5491  -29.8168  -20.5763 C   0  0  0  0  0  0  0  0  0  0  0  0
  -27.2717  -30.0384  -20.2790 N   0  0  0  0  0  0  0  0  0  0  0  0
  -27.2897  -29.9926  -18.9175 N   0  0  0  0  0  0  0  0  0  0  0  0
  -22.9035  -33.2277  -19.1806 C   0  0  0  0  0  0  0  0  0  0  0  0
  -22.0360  -34.0670  -18.4908 C   0  0  0  0  0  0  0  0  0  0  0  0
  -21.6264  -33.8670  -17.2210 N   0  0  0  0  0  0  0  0  0  0  0  0
  1  2  1  0
  2  3  1  0
  3  4  1  0
  4  5  2  0
  5  6  1  0
  6  7  1  0
  7  8  1  0
  8  9  1  0
  9 10  2  0
 10 11  1  0
 11 12  2  0
 12 13  1  0
 13 14  2  0
 14 15  1  0
 15 16  2  0
 16 17  1  0
  6 18  2  0
 18 19  1  0
 19 20  2  0
 20  4  1  0
 17  9  1  0
 17 13  1  0
M  END
>  <HIPPO Pose ID>  (3) 
90022

>  <fragmenstein_outcome>  (3) 
acceptable

>  <energy_score>  (3) 
-56.366017

>  <distance_score>  (3) 
0.937168

>  <fragmenstein_mode>  (3) 
expansion

>  <HIPPO Compound ID>  (3) 
37289

>  <name>  (3) 
RGMTXXNFYIWLIC-UHFFFAOYSA-N

>  <ref_pdb>  (3) 
z0637a

>  <ref_mols>  (3) 
z0521a,z0637a

>  <csv_name>  (3) 
RdRp_knitwork_green_site_rna_tunnel_pure_split4000_batch011.csv

>  <fragmenstein_runtime>  (3) 
3.797915

>  <tags>  (3) 
['Fragmenstein placed']

>  <original ID>  (3) 
RGMTXXNFYIWLIC-UHFFFAOYSA-N

>  <fragmenstein_error>  (3) 
None

>  <original SMILES>  (3) 
CCSc1cc(CNc2ccnc3ncnn23)ccn1

>  <inchikey>  (3) 
RGMTXXNFYIWLIC-UHFFFAOYSA-N

>  <SLURM_JOB_NAME>  (3) 
BulkDock.place:Flavi_NS5_RdRp:RdRp_knitwork_green_site_rna_tunnel_pure_split4000_batch011

>  <scratch_subdir>  (3) 
/opt/xchem-fragalysis-2/maxwin/BulkDock/SCRATCH/217082/C37289-P151

>  <alias>  (3) 
None

>  <SLURM_JOB_ID>  (3) 
217082

>  <exports>  (3) 
['/opt/xchem-fragalysis-2/maxwin/BulkDock/OUTPUTS/RdRp_knitwork_green_site_rna_tunnel_pure_split4000_batch011_217082.sdf']

$$$$
90531
     RDKit          3D

 18 19  0  0  0  0  0  0  0  0999 V2000
  -21.3794  -32.8383  -24.2989 C   0  0  0  0  0  0  0  0  0  0  0  0
  -22.1466  -32.0817  -23.2362 C   0  0  2  0  0  0  0  0  0  0  0  0
  -21.2208  -31.7577  -22.1963 O   0  0  0  0  0  0  0  0  0  0  0  0
  -23.2803  -32.9191  -22.6526 C   0  0  0  0  0  0  0  0  0  0  0  0
  -24.1054  -32.1267  -21.7772 N   0  0  0  0  0  0  0  0  0  0  0  0
  -25.4767  -31.4503  -22.0305 C   0  0  0  0  0  0  0  0  0  0  0  0
  -26.0926  -31.3703  -22.9855 O   0  0  0  0  0  0  0  0  0  0  0  0
  -25.8079  -30.9975  -20.5820 N   0  0  0  0  0  0  0  0  0  0  0  0
  -26.9781  -30.4592  -20.0500 C   0  0  0  0  0  0  0  0  0  0  0  0
  -28.1312  -30.3051  -20.8220 C   0  0  0  0  0  0  0  0  0  0  0  0
  -29.3246  -29.9346  -20.2133 C   0  0  0  0  0  0  0  0  0  0  0  0
  -29.3554  -29.7165  -18.8383 C   0  0  0  0  0  0  0  0  0  0  0  0
  -28.1828  -29.8128  -18.0713 C   0  0  0  0  0  0  0  0  0  0  0  0
  -28.1891  -29.6220  -16.6843 C   0  0  0  0  0  0  0  0  0  0  0  0
  -27.0175  -29.8049  -15.9576 C   0  0  0  0  0  0  0  0  0  0  0  0
  -25.8660  -30.1450  -16.6373 C   0  0  0  0  0  0  0  0  0  0  0  0
  -25.8207  -30.3197  -17.9743 N   0  0  0  0  0  0  0  0  0  0  0  0
  -26.9656  -30.1751  -18.6814 C   0  0  0  0  0  0  0  0  0  0  0  0
  2  1  1  6
  2  3  1  0
  2  4  1  0
  4  5  1  0
  5  6  1  0
  6  7  2  0
  6  8  1  0
  8  9  1  0
  9 10  2  0
 10 11  1  0
 11 12  2  0
 12 13  1  0
 13 14  2  0
 14 15  1  0
 15 16  2  0
 16 17  1  0
 17 18  2  0
 18  9  1  0
 18 13  1  0
M  END
>  <HIPPO Pose ID>  (4) 
90531

>  <fragmenstein_outcome>  (4) 
acceptable

>  <energy_score>  (4) 
-24.32603

>  <distance_score>  (4) 
0.983745

>  <fragmenstein_mode>  (4) 
expansion

>  <HIPPO Compound ID>  (4) 
33434

>  <name>  (4) 
SHENAZADMNUPGS-VIFPVBQESA-N

>  <ref_pdb>  (4) 
z0881a

>  <ref_mols>  (4) 
z0211a,z0881a

>  <csv_name>  (4) 
RdRp_knitwork_green_site_rna_tunnel_pure_split4000_batch016.csv

>  <fragmenstein_runtime>  (4) 
3.506608

>  <tags>  (4) 
['Fragmenstein placed']

>  <original ID>  (4) 
SHENAZADMNUPGS-VIFPVBQESA-N

>  <fragmenstein_error>  (4) 
None

>  <original SMILES>  (4) 
C[C@H](O)CNC(=O)Nc1cccc2cccnc12

>  <inchikey>  (4) 
SHENAZADMNUPGS-VIFPVBQESA-N

>  <SLURM_JOB_NAME>  (4) 
BulkDock.place:Flavi_NS5_RdRp:RdRp_knitwork_green_site_rna_tunnel_pure_split4000_batch016

>  <scratch_subdir>  (4) 
/opt/xchem-fragalysis-2/maxwin/BulkDock/SCRATCH/217087/C33434-P173

>  <alias>  (4) 
None

>  <SLURM_JOB_ID>  (4) 
217087

>  <exports>  (4) 
['/opt/xchem-fragalysis-2/maxwin/BulkDock/OUTPUTS/RdRp_knitwork_green_site_rna_tunnel_pure_split4000_batch016_217087.sdf']

$$$$
91950
     RDKit          3D

 22 24  0  0  0  0  0  0  0  0999 V2000
  -24.9746  -25.5808  -19.4555 N   0  0  0  0  0  0  0  0  0  0  0  0
  -25.0039  -27.1696  -19.9472 S   0  0  0  0  0  0  0  0  0  0  0  0
  -23.6377  -27.6367  -20.0510 O   0  0  0  0  0  0  0  0  0  0  0  0
  -25.8858  -27.1901  -21.0863 O   0  0  0  0  0  0  0  0  0  0  0  0
  -25.7858  -27.9922  -18.5868 C   0  0  0  0  0  0  0  0  0  0  0  0
  -25.0224  -28.3303  -17.4766 C   0  0  0  0  0  0  0  0  0  0  0  0
  -25.5579  -29.1406  -16.4844 C   0  0  0  0  0  0  0  0  0  0  0  0
  -26.8826  -29.5777  -16.5813 C   0  0  0  0  0  0  0  0  0  0  0  0
  -27.6955  -29.2039  -17.6691 C   0  0  0  0  0  0  0  0  0  0  0  0
  -27.1204  -28.3898  -18.6599 C   0  0  0  0  0  0  0  0  0  0  0  0
  -29.0457  -29.6092  -17.7523 N   0  0  0  0  0  0  0  0  0  0  0  0
  -29.3278  -30.4579  -18.9365 C   0  0  0  0  0  0  0  0  0  0  0  0
  -29.9356  -29.6573  -20.0849 C   0  0  0  0  0  0  0  0  0  0  0  0
  -29.8293  -30.3521  -21.4332 C   0  0  0  0  0  0  0  0  0  0  0  0
  -28.4998  -30.7875  -21.7774 N   0  0  0  0  0  0  0  0  0  0  0  0
  -27.3691  -30.0746  -21.5209 C   0  0  0  0  0  0  0  0  0  0  0  0
  -26.4880  -31.0241  -21.0854 C   0  0  0  0  0  0  0  0  0  0  0  0
  -26.9227  -32.2655  -21.4455 N   0  0  0  0  0  0  0  0  0  0  0  0
  -28.1360  -32.0930  -21.9109 C   0  0  0  0  0  0  0  0  0  0  0  0
  -29.6934  -30.1096  -16.5189 C   0  0  0  0  0  0  0  0  0  0  0  0
  -28.8571  -29.9721  -15.2581 C   0  0  0  0  0  0  0  0  0  0  0  0
  -27.4502  -30.4626  -15.5102 C   0  0  0  0  0  0  0  0  0  0  0  0
  1  2  1  0
  2  3  2  0
  2  4  2  0
  2  5  1  0
  5  6  2  0
  6  7  1  0
  7  8  2  0
  8  9  1  0
  9 10  2  0
  9 11  1  0
 11 12  1  0
 12 13  1  0
 13 14  1  0
 14 15  1  0
 15 16  1  0
 16 17  2  0
 17 18  1  0
 18 19  2  0
 11 20  1  0
 20 21  1  0
 21 22  1  0
 10  5  1  0
 19 15  1  0
 22  8  1  0
M  END
>  <HIPPO Pose ID>  (5) 
91950

>  <fragmenstein_outcome>  (5) 
acceptable

>  <energy_score>  (5) 
-16.838184

>  <distance_score>  (5) 
0.956922

>  <fragmenstein_mode>  (5) 
expansion

>  <HIPPO Compound ID>  (5) 
35077

>  <name>  (5) 
AUGXQYVBKOYOEW-UHFFFAOYSA-N

>  <ref_pdb>  (5) 
z0165a

>  <ref_mols>  (5) 
d0378a,z0165a

>  <csv_name>  (5) 
RdRp_knitwork_green_site_rna_tunnel_pure_split4000_batch015.csv

>  <fragmenstein_runtime>  (5) 
4.037008

>  <tags>  (5) 
['Fragmenstein placed']

>  <original ID>  (5) 
AUGXQYVBKOYOEW-UHFFFAOYSA-N

>  <fragmenstein_error>  (5) 
None

>  <original SMILES>  (5) 
NS(=O)(=O)c1ccc2c(c1)N(CCCn1ccnc1)CCC2

>  <inchikey>  (5) 
AUGXQYVBKOYOEW-UHFFFAOYSA-N

>  <SLURM_JOB_NAME>  (5) 
BulkDock.place:Flavi_NS5_RdRp:RdRp_knitwork_green_site_rna_tunnel_pure_split4000_batch015

>  <scratch_subdir>  (5) 
/opt/xchem-fragalysis-2/maxwin/BulkDock/SCRATCH/217086/C35077-P3

>  <alias>  (5) 
None

>  <SLURM_JOB_ID>  (5) 
217086

>  <exports>  (5) 
['/opt/xchem-fragalysis-2/maxwin/BulkDock/OUTPUTS/RdRp_knitwork_green_site_rna_tunnel_pure_split4000_batch015_217086.sdf']

$$$$
91960
     RDKit          3D

 18 20  0  0  0  0  0  0  0  0999 V2000
  -24.6047  -31.3665  -18.5016 N   0  0  0  0  0  0  0  0  0  0  0  0
  -25.3138  -32.5055  -19.0648 C   0  0  0  0  0  0  0  0  0  0  0  0
  -26.0008  -32.2558  -20.4095 C   0  0  0  0  0  0  0  0  0  0  0  0
  -25.1450  -31.8786  -21.5735 C   0  0  0  0  0  0  0  0  0  0  0  0
  -23.9519  -32.4736  -22.0924 C   0  0  0  0  0  0  0  0  0  0  0  0
  -23.1377  -33.5208  -21.4929 C   0  0  0  0  0  0  0  0  0  0  0  0
  -23.4648  -34.8047  -21.1300 C   0  0  0  0  0  0  0  0  0  0  0  0
  -22.3996  -35.4101  -20.5297 O   0  0  0  0  0  0  0  0  0  0  0  0
  -21.3651  -34.5189  -20.5544 C   0  0  0  0  0  0  0  0  0  0  0  0
  -20.0825  -34.7420  -20.0536 C   0  0  0  0  0  0  0  0  0  0  0  0
  -19.1658  -33.6906  -20.1752 C   0  0  0  0  0  0  0  0  0  0  0  0
  -19.5317  -32.4804  -20.7670 C   0  0  0  0  0  0  0  0  0  0  0  0
  -20.8244  -32.2913  -21.2705 C   0  0  0  0  0  0  0  0  0  0  0  0
  -21.7647  -33.3355  -21.1584 C   0  0  0  0  0  0  0  0  0  0  0  0
  -23.5288  -31.8719  -23.2052 N   0  0  0  0  0  0  0  0  0  0  0  0
  -24.3269  -30.8038  -23.3117 N   0  0  0  0  0  0  0  0  0  0  0  0
  -25.3686  -30.8112  -22.4301 C   0  0  0  0  0  0  0  0  0  0  0  0
  -26.3061  -29.8729  -22.4986 O   0  0  0  0  0  0  0  0  0  0  0  0
  1  2  1  0
  2  3  1  0
  3  4  1  0
  4  5  1  0
  5  6  1  0
  6  7  2  0
  7  8  1  0
  8  9  1  0
  9 10  2  0
 10 11  1  0
 11 12  2  0
 12 13  1  0
 13 14  2  0
  5 15  2  0
 15 16  1  0
 16 17  1  0
 17 18  1  0
 17  4  2  0
 14  6  1  0
 14  9  1  0
M  END
>  <HIPPO Pose ID>  (6) 
91960

>  <fragmenstein_outcome>  (6) 
acceptable

>  <energy_score>  (6) 
-35.02666

>  <distance_score>  (6) 
0.985029

>  <fragmenstein_mode>  (6) 
expansion

>  <HIPPO Compound ID>  (6) 
27414

>  <name>  (6) 
WMLKLTSICMLGPL-UHFFFAOYSA-N

>  <ref_pdb>  (6) 
z0653a

>  <ref_mols>  (6) 
z0653a,3vws-b

>  <csv_name>  (6) 
RdRp_knitwork_green_site_rna_tunnel_pure_split4000_batch013.csv

>  <fragmenstein_runtime>  (6) 
2.703466

>  <tags>  (6) 
['Fragmenstein placed']

>  <original ID>  (6) 
WMLKLTSICMLGPL-UHFFFAOYSA-N

>  <fragmenstein_error>  (6) 
None

>  <original SMILES>  (6) 
NCCc1c(-c2coc3ccccc23)n[nH]c1O

>  <inchikey>  (6) 
WMLKLTSICMLGPL-UHFFFAOYSA-N

>  <SLURM_JOB_NAME>  (6) 
BulkDock.place:Flavi_NS5_RdRp:RdRp_knitwork_green_site_rna_tunnel_pure_split4000_batch013

>  <scratch_subdir>  (6) 
/opt/xchem-fragalysis-2/maxwin/BulkDock/SCRATCH/217084/C27414-P153

>  <alias>  (6) 
None

>  <SLURM_JOB_ID>  (6) 
217084

>  <exports>  (6) 
['/opt/xchem-fragalysis-2/maxwin/BulkDock/OUTPUTS/RdRp_knitwork_green_site_rna_tunnel_pure_split4000_batch013_217084.sdf']

$$$$
92131
     RDKit          3D

 25 27  0  0  0  0  0  0  0  0999 V2000
  -21.6683  -32.1819  -15.2655 C   0  0  0  0  0  0  0  0  0  0  0  0
  -22.9850  -32.9165  -15.4980 C   0  0  1  0  0  0  0  0  0  0  0  0
  -24.0814  -32.4411  -14.5018 C   0  0  0  0  0  0  0  0  0  0  0  0
  -25.2007  -31.7929  -15.1646 N   0  0  0  0  0  0  0  0  0  0  0  0
  -25.3759  -30.3399  -15.6401 C   0  0  0  0  0  0  0  0  0  0  0  0
  -24.6827  -29.4135  -15.5077 O   0  0  0  0  0  0  0  0  0  0  0  0
  -26.6029  -30.2081  -16.4714 C   0  0  0  0  0  0  0  0  0  0  0  0
  -27.8702  -30.5269  -15.9879 C   0  0  0  0  0  0  0  0  0  0  0  0
  -28.9724  -30.4487  -16.8465 C   0  0  0  0  0  0  0  0  0  0  0  0
  -28.8108  -30.0967  -18.2012 C   0  0  0  0  0  0  0  0  0  0  0  0
  -29.8773  -30.0843  -19.1085 C   0  0  0  0  0  0  0  0  0  0  0  0
  -29.6415  -29.7661  -20.4367 C   0  0  0  0  0  0  0  0  0  0  0  0
  -28.4291  -29.4436  -20.9219 N   0  0  0  0  0  0  0  0  0  0  0  0
  -27.4122  -29.4374  -20.0297 C   0  0  0  0  0  0  0  0  0  0  0  0
  -27.5321  -29.7629  -18.6750 C   0  0  0  0  0  0  0  0  0  0  0  0
  -26.4375  -29.7903  -17.7962 C   0  0  0  0  0  0  0  0  0  0  0  0
  -23.4084  -32.7265  -16.8722 N   0  0  0  0  0  0  0  0  0  0  0  0
  -23.1105  -33.5553  -18.1338 C   0  0  0  0  0  0  0  0  0  0  0  0
  -22.4163  -34.4776  -18.2843 O   0  0  0  0  0  0  0  0  0  0  0  0
  -23.9155  -33.0438  -19.2721 C   0  0  0  0  0  0  0  0  0  0  0  0
  -24.6432  -33.9164  -20.0787 C   0  0  0  0  0  0  0  0  0  0  0  0
  -25.4512  -33.4014  -21.0882 C   0  0  0  0  0  0  0  0  0  0  0  0
  -25.5112  -32.0260  -21.2399 C   0  0  0  0  0  0  0  0  0  0  0  0
  -24.8114  -31.1524  -20.4775 N   0  0  0  0  0  0  0  0  0  0  0  0
  -23.9999  -31.6859  -19.5335 C   0  0  0  0  0  0  0  0  0  0  0  0
  2  1  1  1
  2  3  1  0
  3  4  1  0
  4  5  1  0
  5  6  2  0
  5  7  1  0
  7  8  2  0
  8  9  1  0
  9 10  2  0
 10 11  1  0
 11 12  2  0
 12 13  1  0
 13 14  2  0
 14 15  1  0
 15 16  2  0
  2 17  1  0
 17 18  1  0
 18 19  2  0
 18 20  1  0
 20 21  2  0
 21 22  1  0
 22 23  2  0
 23 24  1  0
 24 25  2  0
 16  7  1  0
 25 20  1  0
 15 10  1  0
M  END
>  <HIPPO Pose ID>  (7) 
92131

>  <fragmenstein_outcome>  (7) 
acceptable

>  <energy_score>  (7) 
-5.788163

>  <distance_score>  (7) 
0.918568

>  <fragmenstein_mode>  (7) 
expansion

>  <HIPPO Compound ID>  (7) 
39036

>  <name>  (7) 
NGMHYAWKTPWVNO-ZDUSSCGKSA-N

>  <ref_pdb>  (7) 
z0111a

>  <ref_mols>  (7) 
d0472b,z0111a

>  <csv_name>  (7) 
RdRp_knitwork_green_site_rna_tunnel_pure_split4000_batch007.csv

>  <fragmenstein_runtime>  (7) 
8.219285

>  <tags>  (7) 
['Fragmenstein placed']

>  <original ID>  (7) 
NGMHYAWKTPWVNO-ZDUSSCGKSA-N

>  <fragmenstein_error>  (7) 
None

>  <original SMILES>  (7) 
C[C@@H](CNC(=O)c1ccc2ccncc2c1)NC(=O)c1cccnc1

>  <inchikey>  (7) 
NGMHYAWKTPWVNO-ZDUSSCGKSA-N

>  <SLURM_JOB_NAME>  (7) 
BulkDock.place:Flavi_NS5_RdRp:RdRp_knitwork_green_site_rna_tunnel_pure_split4000_batch007

>  <scratch_subdir>  (7) 
/opt/xchem-fragalysis-2/maxwin/BulkDock/SCRATCH/217078/C39036-P88

>  <alias>  (7) 
None

>  <SLURM_JOB_ID>  (7) 
217078

>  <exports>  (7) 
['/opt/xchem-fragalysis-2/maxwin/BulkDock/OUTPUTS/RdRp_knitwork_green_site_rna_tunnel_pure_split4000_batch007_217078.sdf']

$$$$
92388
     RDKit          3D

 22 24  0  0  0  0  0  0  0  0999 V2000
  -29.9062  -31.4781  -14.6969 N   0  0  0  0  0  0  0  0  0  0  0  0
  -29.2366  -31.1009  -15.5673 C   0  0  0  0  0  0  0  0  0  0  0  0
  -28.3755  -30.6730  -16.6304 C   0  0  0  0  0  0  0  0  0  0  0  0
  -27.0182  -30.5544  -16.3522 C   0  0  0  0  0  0  0  0  0  0  0  0
  -26.1522  -30.2187  -17.3762 C   0  0  0  0  0  0  0  0  0  0  0  0
  -24.7749  -30.0984  -17.1555 N   0  0  0  0  0  0  0  0  0  0  0  0
  -24.1707  -31.3055  -16.5857 C   0  0  0  0  0  0  0  0  0  0  0  0
  -23.0453  -31.8718  -17.4726 C   0  0  0  0  0  0  0  0  0  0  0  0
  -23.3737  -32.0306  -18.8856 N   0  0  0  0  0  0  0  0  0  0  0  0
  -24.5472  -32.6478  -19.2801 C   0  0  0  0  0  0  0  0  0  0  0  0
  -25.0445  -33.7943  -18.6717 C   0  0  0  0  0  0  0  0  0  0  0  0
  -26.2396  -34.3481  -19.1244 C   0  0  0  0  0  0  0  0  0  0  0  0
  -26.8923  -33.7560  -20.1937 C   0  0  0  0  0  0  0  0  0  0  0  0
  -26.3063  -32.6488  -20.7760 C   0  0  0  0  0  0  0  0  0  0  0  0
  -25.1535  -32.0937  -20.3476 N   0  0  0  0  0  0  0  0  0  0  0  0
  -26.6036  -29.9577  -18.6121 N   0  0  0  0  0  0  0  0  0  0  0  0
  -27.9075  -30.0729  -18.9001 C   0  0  0  0  0  0  0  0  0  0  0  0
  -28.3395  -29.8430  -20.2034 C   0  0  0  0  0  0  0  0  0  0  0  0
  -29.6796  -29.9398  -20.5731 C   0  0  0  0  0  0  0  0  0  0  0  0
  -30.6205  -30.2691  -19.6147 C   0  0  0  0  0  0  0  0  0  0  0  0
  -30.2081  -30.4982  -18.3023 C   0  0  0  0  0  0  0  0  0  0  0  0
  -28.8530  -30.4210  -17.9299 C   0  0  0  0  0  0  0  0  0  0  0  0
  1  2  3  0
  2  3  1  0
  3  4  2  0
  4  5  1  0
  5  6  1  0
  6  7  1  0
  7  8  1  0
  8  9  1  0
  9 10  1  0
 10 11  2  0
 11 12  1  0
 12 13  2  0
 13 14  1  0
 14 15  2  0
  5 16  2  0
 16 17  1  0
 17 18  2  0
 18 19  1  0
 19 20  2  0
 20 21  1  0
 21 22  2  0
 22  3  1  0
 15 10  1  0
 22 17  1  0
M  END
>  <HIPPO Pose ID>  (8) 
92388

>  <fragmenstein_outcome>  (8) 
acceptable

>  <energy_score>  (8) 
-10.564196

>  <distance_score>  (8) 
0.745192

>  <fragmenstein_mode>  (8) 
expansion

>  <HIPPO Compound ID>  (8) 
41734

>  <name>  (8) 
ZNQUYWFSWFLUNR-UHFFFAOYSA-N

>  <ref_pdb>  (8) 
z1040a

>  <ref_mols>  (8) 
d0472b,z1040a

>  <csv_name>  (8) 
RdRp_knitwork_green_site_rna_tunnel_pure_split4000_batch001.csv

>  <fragmenstein_runtime>  (8) 
2.264931

>  <tags>  (8) 
['Fragmenstein placed']

>  <original ID>  (8) 
ZNQUYWFSWFLUNR-UHFFFAOYSA-N

>  <fragmenstein_error>  (8) 
None

>  <original SMILES>  (8) 
N#Cc1cc(NCCNc2ccccn2)nc2ccccc12

>  <inchikey>  (8) 
ZNQUYWFSWFLUNR-UHFFFAOYSA-N

>  <SLURM_JOB_NAME>  (8) 
BulkDock.place:Flavi_NS5_RdRp:RdRp_knitwork_green_site_rna_tunnel_pure_split4000_batch001

>  <scratch_subdir>  (8) 
/opt/xchem-fragalysis-2/maxwin/BulkDock/SCRATCH/217072/C41734-P208

>  <alias>  (8) 
None

>  <SLURM_JOB_ID>  (8) 
217072

>  <exports>  (8) 
['/opt/xchem-fragalysis-2/maxwin/BulkDock/OUTPUTS/RdRp_knitwork_green_site_rna_tunnel_pure_split4000_batch001_217072.sdf']

$$$$
92414
     RDKit          3D

 23 25  0  0  0  0  0  0  0  0999 V2000
  -21.1219  -32.6133  -13.9784 C   0  0  0  0  0  0  0  0  0  0  0  0
  -21.8795  -31.9456  -15.1197 C   0  0  0  0  0  0  0  0  0  0  0  0
  -23.1691  -32.7291  -15.4648 C   0  0  0  0  0  0  0  0  0  0  0  0
  -24.2970  -32.0545  -16.2089 N   0  0  0  0  0  0  0  0  0  0  0  0
  -23.3355  -32.3622  -17.4052 C   0  0  0  0  0  0  0  0  0  0  0  0
  -24.0168  -32.3281  -18.7644 C   0  0  0  0  0  0  0  0  0  0  0  0
  -24.6904  -33.4072  -19.3238 C   0  0  0  0  0  0  0  0  0  0  0  0
  -25.3664  -33.2681  -20.5365 C   0  0  0  0  0  0  0  0  0  0  0  0
  -25.3135  -32.0486  -21.1798 C   0  0  0  0  0  0  0  0  0  0  0  0
  -24.5881  -31.0106  -20.7217 N   0  0  0  0  0  0  0  0  0  0  0  0
  -23.9229  -31.2032  -19.5594 C   0  0  0  0  0  0  0  0  0  0  0  0
  -24.7451  -30.6002  -16.2216 C   0  0  0  0  0  0  0  0  0  0  0  0
  -24.2651  -29.6497  -15.7154 O   0  0  0  0  0  0  0  0  0  0  0  0
  -26.0502  -30.4249  -16.9152 C   0  0  0  0  0  0  0  0  0  0  0  0
  -27.2095  -30.8950  -16.2901 C   0  0  0  0  0  0  0  0  0  0  0  0
  -28.4524  -30.7421  -16.9135 C   0  0  0  0  0  0  0  0  0  0  0  0
  -28.5328  -30.2129  -18.2120 C   0  0  0  0  0  0  0  0  0  0  0  0
  -29.7267  -30.1892  -18.9407 C   0  0  0  0  0  0  0  0  0  0  0  0
  -29.7081  -29.7594  -20.2577 C   0  0  0  0  0  0  0  0  0  0  0  0
  -28.5994  -29.3244  -20.8865 N   0  0  0  0  0  0  0  0  0  0  0  0
  -27.4630  -29.3113  -20.1526 C   0  0  0  0  0  0  0  0  0  0  0  0
  -27.3651  -29.7328  -18.8245 C   0  0  0  0  0  0  0  0  0  0  0  0
  -26.1513  -29.7406  -18.1195 C   0  0  0  0  0  0  0  0  0  0  0  0
  1  2  1  0
  2  3  1  0
  3  4  1  0
  4  5  1  0
  5  6  1  0
  6  7  2  0
  7  8  1  0
  8  9  2  0
  9 10  1  0
 10 11  2  0
  4 12  1  0
 12 13  2  0
 12 14  1  0
 14 15  2  0
 15 16  1  0
 16 17  2  0
 17 18  1  0
 18 19  2  0
 19 20  1  0
 20 21  2  0
 21 22  1  0
 22 23  2  0
 11  6  1  0
 23 14  1  0
 22 17  1  0
M  END
>  <HIPPO Pose ID>  (9) 
92414

>  <fragmenstein_outcome>  (9) 
acceptable

>  <energy_score>  (9) 
-10.770103

>  <distance_score>  (9) 
0.931919

>  <fragmenstein_mode>  (9) 
expansion

>  <HIPPO Compound ID>  (9) 
39725

>  <name>  (9) 
QLRVEROBZFMMAP-UHFFFAOYSA-N

>  <ref_pdb>  (9) 
z0111a

>  <ref_mols>  (9) 
d0472b,z0111a

>  <csv_name>  (9) 
RdRp_knitwork_green_site_rna_tunnel_pure_split4000_batch007.csv

>  <fragmenstein_runtime>  (9) 
7.84256

>  <tags>  (9) 
['Fragmenstein placed']

>  <original ID>  (9) 
QLRVEROBZFMMAP-UHFFFAOYSA-N

>  <fragmenstein_error>  (9) 
None

>  <original SMILES>  (9) 
CCCN(Cc1cccnc1)C(=O)c1ccc2ccncc2c1

>  <inchikey>  (9) 
QLRVEROBZFMMAP-UHFFFAOYSA-N

>  <SLURM_JOB_NAME>  (9) 
BulkDock.place:Flavi_NS5_RdRp:RdRp_knitwork_green_site_rna_tunnel_pure_split4000_batch007

>  <scratch_subdir>  (9) 
/opt/xchem-fragalysis-2/maxwin/BulkDock/SCRATCH/217078/C39725-P88

>  <alias>  (9) 
None

>  <SLURM_JOB_ID>  (9) 
217078

>  <exports>  (9) 
['/opt/xchem-fragalysis-2/maxwin/BulkDock/OUTPUTS/RdRp_knitwork_green_site_rna_tunnel_pure_split4000_batch007_217078.sdf']

$$$$
92514
     RDKit          3D

 24 27  0  0  0  0  0  0  0  0999 V2000
  -30.3404  -29.8128  -19.0548 C   0  0  0  0  0  0  0  0  0  0  0  0
  -29.0252  -30.4804  -18.9679 C   0  0  0  0  0  0  0  0  0  0  0  0
  -28.8913  -31.6448  -18.2463 C   0  0  0  0  0  0  0  0  0  0  0  0
  -27.7374  -32.3134  -18.1293 N   0  0  0  0  0  0  0  0  0  0  0  0
  -26.6683  -31.8941  -18.8152 C   0  0  0  0  0  0  0  0  0  0  0  0
  -25.5104  -32.6487  -18.9003 C   0  0  0  0  0  0  0  0  0  0  0  0
  -25.4401  -34.2617  -18.1648 S   0  0  0  0  0  0  0  0  0  0  0  0
  -26.7677  -34.7986  -17.9431 O   0  0  0  0  0  0  0  0  0  0  0  0
  -24.5209  -35.0368  -18.9741 O   0  0  0  0  0  0  0  0  0  0  0  0
  -24.7521  -33.9596  -16.6630 N   0  0  0  0  0  0  0  0  0  0  0  0
  -23.4607  -33.3812  -16.5046 C   0  0  0  0  0  0  0  0  0  0  0  0
  -22.3571  -33.7823  -17.2656 C   0  0  0  0  0  0  0  0  0  0  0  0
  -21.0991  -33.1893  -17.1044 C   0  0  0  0  0  0  0  0  0  0  0  0
  -20.9977  -32.2154  -16.1182 C   0  0  0  0  0  0  0  0  0  0  0  0
  -19.8695  -31.5229  -15.8065 O   0  0  0  0  0  0  0  0  0  0  0  0
  -20.1900  -30.6832  -14.7879 C   0  0  0  0  0  0  0  0  0  0  0  0
  -21.5113  -30.8357  -14.4319 C   0  0  0  0  0  0  0  0  0  0  0  0
  -22.0495  -31.8226  -15.3000 C   0  0  0  0  0  0  0  0  0  0  0  0
  -23.3056  -32.4270  -15.4892 C   0  0  0  0  0  0  0  0  0  0  0  0
  -24.4079  -32.2127  -19.6551 C   0  0  0  0  0  0  0  0  0  0  0  0
  -24.4378  -30.9796  -20.2946 C   0  0  0  0  0  0  0  0  0  0  0  0
  -25.5848  -30.2036  -20.2242 C   0  0  0  0  0  0  0  0  0  0  0  0
  -26.7019  -30.6706  -19.5231 C   0  0  0  0  0  0  0  0  0  0  0  0
  -27.8941  -29.9528  -19.5683 C   0  0  0  0  0  0  0  0  0  0  0  0
  1  2  1  0
  2  3  2  0
  3  4  1  0
  4  5  2  0
  5  6  1  0
  6  7  1  0
  7  8  2  0
  7  9  2  0
  7 10  1  0
 10 11  1  0
 11 12  2  0
 12 13  1  0
 13 14  2  0
 14 15  1  0
 15 16  1  0
 16 17  2  0
 17 18  1  0
 18 19  2  0
  6 20  2  0
 20 21  1  0
 21 22  2  0
 22 23  1  0
 23 24  2  0
 24  2  1  0
 23  5  1  0
 19 11  1  0
 18 14  1  0
M  END
>  <HIPPO Pose ID>  (10) 
92514

>  <fragmenstein_outcome>  (10) 
acceptable

>  <energy_score>  (10) 
-64.74588

>  <distance_score>  (10) 
0.879974

>  <fragmenstein_mode>  (10) 
expansion

>  <HIPPO Compound ID>  (10) 
35265

>  <name>  (10) 
FJAHWBHLOHECIN-UHFFFAOYSA-N

>  <ref_pdb>  (10) 
3vws-a

>  <ref_mols>  (10) 
z1040a,3vws-a

>  <csv_name>  (10) 
RdRp_knitwork_green_site_rna_tunnel_pure_split4000_batch014.csv

>  <fragmenstein_runtime>  (10) 
9.303592

>  <tags>  (10) 
['Fragmenstein placed']

>  <original ID>  (10) 
FJAHWBHLOHECIN-UHFFFAOYSA-N

>  <fragmenstein_error>  (10) 
None

>  <original SMILES>  (10) 
Cc1cnc2c(S(=O)(=O)Nc3ccc4occc4c3)cccc2c1

>  <inchikey>  (10) 
FJAHWBHLOHECIN-UHFFFAOYSA-N

>  <SLURM_JOB_NAME>  (10) 
BulkDock.place:Flavi_NS5_RdRp:RdRp_knitwork_green_site_rna_tunnel_pure_split4000_batch014

>  <scratch_subdir>  (10) 
/opt/xchem-fragalysis-2/maxwin/BulkDock/SCRATCH/217085/C35265-P218

>  <alias>  (10) 
None

>  <SLURM_JOB_ID>  (10) 
217085

>  <exports>  (10) 
['/opt/xchem-fragalysis-2/maxwin/BulkDock/OUTPUTS/RdRp_knitwork_green_site_rna_tunnel_pure_split4000_batch014_217085.sdf']

$$$$
92631
     RDKit          3D

 15 17  0  0  0  0  0  0  0  0999 V2000
  -24.9462  -27.6349  -16.9833 C   0  0  0  0  0  0  0  0  0  0  0  0
  -25.4971  -27.3226  -18.2219 C   0  0  0  0  0  0  0  0  0  0  0  0
  -26.5653  -28.0722  -18.7106 C   0  0  0  0  0  0  0  0  0  0  0  0
  -27.0877  -29.1497  -17.9804 C   0  0  0  0  0  0  0  0  0  0  0  0
  -26.6159  -29.3597  -16.6751 C   0  0  0  0  0  0  0  0  0  0  0  0
  -25.5111  -28.6434  -16.2050 C   0  0  0  0  0  0  0  0  0  0  0  0
  -27.3107  -30.3656  -15.8020 C   0  0  0  0  0  0  0  0  0  0  0  0
  -28.7873  -30.3423  -16.1739 C   0  0  0  0  0  0  0  0  0  0  0  0
  -28.9505  -30.7303  -17.6417 C   0  0  0  0  0  0  0  0  0  0  0  0
  -28.0097  -30.0467  -18.5708 N   0  0  0  0  0  0  0  0  0  0  0  0
  -27.6196  -30.8275  -19.6376 C   0  0  0  0  0  0  0  0  0  0  0  0
  -28.1206  -31.9898  -20.0077 N   0  0  0  0  0  0  0  0  0  0  0  0
  -27.2974  -32.4700  -20.9902 C   0  0  0  0  0  0  0  0  0  0  0  0
  -26.3335  -31.5533  -21.3154 C   0  0  0  0  0  0  0  0  0  0  0  0
  -26.5421  -30.5209  -20.4491 N   0  0  0  0  0  0  0  0  0  0  0  0
  1  2  2  0
  2  3  1  0
  3  4  2  0
  4  5  1  0
  5  6  2  0
  5  7  1  0
  7  8  1  0
  8  9  1  0
  9 10  1  0
 10 11  1  0
 11 12  2  0
 12 13  1  0
 13 14  2  0
 14 15  1  0
  6  1  1  0
 15 11  1  0
 10  4  1  0
M  END
>  <HIPPO Pose ID>  (11) 
92631

>  <fragmenstein_outcome>  (11) 
acceptable

>  <energy_score>  (11) 
-31.132302

>  <distance_score>  (11) 
0.956407

>  <fragmenstein_mode>  (11) 
expansion

>  <HIPPO Compound ID>  (11) 
36444

>  <name>  (11) 
OZQNHEUPTKNCJX-UHFFFAOYSA-N

>  <ref_pdb>  (11) 
d0378a

>  <ref_mols>  (11) 
d0378a,z0165a

>  <csv_name>  (11) 
RdRp_knitwork_green_site_rna_tunnel_pure_split4000_batch015.csv

>  <fragmenstein_runtime>  (11) 
2.503541

>  <tags>  (11) 
['Fragmenstein placed']

>  <original ID>  (11) 
OZQNHEUPTKNCJX-UHFFFAOYSA-N

>  <fragmenstein_error>  (11) 
None

>  <original SMILES>  (11) 
c1ccc2c(c1)CCCN2c1ncc[nH]1

>  <inchikey>  (11) 
OZQNHEUPTKNCJX-UHFFFAOYSA-N

>  <SLURM_JOB_NAME>  (11) 
BulkDock.place:Flavi_NS5_RdRp:RdRp_knitwork_green_site_rna_tunnel_pure_split4000_batch015

>  <scratch_subdir>  (11) 
/opt/xchem-fragalysis-2/maxwin/BulkDock/SCRATCH/217086/C36444-P1

>  <alias>  (11) 
None

>  <SLURM_JOB_ID>  (11) 
217086

>  <exports>  (11) 
['/opt/xchem-fragalysis-2/maxwin/BulkDock/OUTPUTS/RdRp_knitwork_green_site_rna_tunnel_pure_split4000_batch015_217086.sdf']

$$$$
93198
     RDKit          3D

 23 25  0  0  0  0  0  0  0  0999 V2000
  -27.0118  -30.1286  -16.4497 C   0  0  0  0  0  0  0  0  0  0  0  0
  -27.8795  -30.1808  -17.6536 C   0  0  0  0  0  0  0  0  0  0  0  0
  -29.2485  -30.3595  -17.6673 C   0  0  0  0  0  0  0  0  0  0  0  0
  -29.8192  -30.4341  -19.2785 S   0  0  0  0  0  0  0  0  0  0  0  0
  -28.2160  -30.1830  -19.8495 C   0  0  0  0  0  0  0  0  0  0  0  0
  -27.9623  -30.0911  -21.3631 C   0  0  0  0  0  0  0  0  0  0  0  0
  -26.6089  -30.7155  -21.5694 N   0  0  0  0  0  0  0  0  0  0  0  0
  -26.8579  -30.1815  -22.9565 C   0  0  0  0  0  0  0  0  0  0  0  0
  -26.1897  -32.1710  -21.6097 C   0  0  0  0  0  0  0  0  0  0  0  0
  -26.8386  -33.1513  -21.5685 O   0  0  0  0  0  0  0  0  0  0  0  0
  -24.6352  -32.1415  -21.6112 C   0  0  1  0  0  0  0  0  0  0  0  0
  -24.2422  -32.0373  -20.1820 N   0  0  0  0  0  0  0  0  0  0  0  0
  -24.0531  -33.3354  -22.4088 C   0  0  0  0  0  0  0  0  0  0  0  0
  -22.9561  -34.0871  -21.7228 C   0  0  0  0  0  0  0  0  0  0  0  0
  -22.9678  -35.4197  -21.3600 C   0  0  0  0  0  0  0  0  0  0  0  0
  -21.8485  -35.7466  -20.6646 O   0  0  0  0  0  0  0  0  0  0  0  0
  -21.0969  -34.6145  -20.5728 C   0  0  0  0  0  0  0  0  0  0  0  0
  -19.8819  -34.5012  -19.8982 C   0  0  0  0  0  0  0  0  0  0  0  0
  -19.2520  -33.2533  -19.9463 C   0  0  0  0  0  0  0  0  0  0  0  0
  -19.8303  -32.1804  -20.6276 C   0  0  0  0  0  0  0  0  0  0  0  0
  -21.0551  -32.3247  -21.2932 C   0  0  0  0  0  0  0  0  0  0  0  0
  -21.7054  -33.5730  -21.2602 C   0  0  0  0  0  0  0  0  0  0  0  0
  -27.2996  -30.0540  -18.9061 N   0  0  0  0  0  0  0  0  0  0  0  0
  1  2  1  0
  2  3  2  0
  3  4  1  0
  4  5  1  0
  5  6  1  0
  6  7  1  0
  7  8  1  0
  7  9  1  0
  9 10  2  0
  9 11  1  0
 11 12  1  1
 11 13  1  0
 13 14  1  0
 14 15  2  0
 15 16  1  0
 16 17  1  0
 17 18  2  0
 18 19  1  0
 19 20  2  0
 20 21  1  0
 21 22  2  0
  5 23  2  0
 23  2  1  0
 22 14  1  0
 22 17  1  0
M  END
>  <HIPPO Pose ID>  (12) 
93198

>  <fragmenstein_outcome>  (12) 
acceptable

>  <energy_score>  (12) 
-101.457213

>  <distance_score>  (12) 
0.971345

>  <fragmenstein_mode>  (12) 
expansion

>  <HIPPO Compound ID>  (12) 
35403

>  <name>  (12) 
JSNLNJMSIGJZHJ-AWEZNQCLSA-N

>  <ref_pdb>  (12) 
z0384a

>  <ref_mols>  (12) 
z0384a,3vws-b

>  <csv_name>  (12) 
RdRp_knitwork_green_site_rna_tunnel_pure_split4000_batch016.csv

>  <fragmenstein_runtime>  (12) 
3.882692

>  <tags>  (12) 
['Fragmenstein placed']

>  <original ID>  (12) 
JSNLNJMSIGJZHJ-AWEZNQCLSA-N

>  <fragmenstein_error>  (12) 
None

>  <original SMILES>  (12) 
Cc1csc(CN(C)C(=O)[C@@H](N)Cc2coc3ccccc23)n1

>  <inchikey>  (12) 
JSNLNJMSIGJZHJ-AWEZNQCLSA-N

>  <SLURM_JOB_NAME>  (12) 
BulkDock.place:Flavi_NS5_RdRp:RdRp_knitwork_green_site_rna_tunnel_pure_split4000_batch016

>  <scratch_subdir>  (12) 
/opt/xchem-fragalysis-2/maxwin/BulkDock/SCRATCH/217087/C35403-P120

>  <alias>  (12) 
None

>  <SLURM_JOB_ID>  (12) 
217087

>  <exports>  (12) 
['/opt/xchem-fragalysis-2/maxwin/BulkDock/OUTPUTS/RdRp_knitwork_green_site_rna_tunnel_pure_split4000_batch016_217087.sdf']

$$$$
93231
     RDKit          3D

 24 26  0  0  0  0  0  0  0  0999 V2000
  -26.0914  -32.7362  -21.7816 O   0  0  0  0  0  0  0  0  0  0  0  0
  -24.9890  -32.3576  -21.6848 C   0  0  0  0  0  0  0  0  0  0  0  0
  -23.8855  -32.7475  -22.6842 C   0  0  0  0  0  0  0  0  0  0  0  0
  -22.9222  -33.6852  -22.0232 C   0  0  0  0  0  0  0  0  0  0  0  0
  -23.1148  -35.0259  -21.7462 C   0  0  0  0  0  0  0  0  0  0  0  0
  -22.1049  -35.5143  -20.9794 O   0  0  0  0  0  0  0  0  0  0  0  0
  -21.2408  -34.4857  -20.7602 C   0  0  0  0  0  0  0  0  0  0  0  0
  -20.0938  -34.5425  -19.9703 C   0  0  0  0  0  0  0  0  0  0  0  0
  -19.3241  -33.3769  -19.8985 C   0  0  0  0  0  0  0  0  0  0  0  0
  -19.7031  -32.2190  -20.5805 C   0  0  0  0  0  0  0  0  0  0  0  0
  -20.8656  -32.1904  -21.3617 C   0  0  0  0  0  0  0  0  0  0  0  0
  -21.6595  -33.3508  -21.4423 C   0  0  0  0  0  0  0  0  0  0  0  0
  -24.3082  -31.5133  -20.5702 N   0  0  0  0  0  0  0  0  0  0  0  0
  -24.8220  -31.0437  -19.3004 C   0  0  0  0  0  0  0  0  0  0  0  0
  -25.4868  -32.1759  -18.5089 C   0  0  2  0  0  0  0  0  0  0  0  0
  -26.7971  -32.4544  -19.0208 O   0  0  0  0  0  0  0  0  0  0  0  0
  -25.5376  -31.8905  -16.9844 C   0  0  0  0  0  0  0  0  0  0  0  0
  -26.8422  -31.5513  -16.3978 N   0  0  0  0  0  0  0  0  0  0  0  0
  -27.2225  -30.1445  -16.5926 C   0  0  0  0  0  0  0  0  0  0  0  0
  -28.1209  -30.0114  -17.7855 C   0  0  0  0  0  0  0  0  0  0  0  0
  -29.4190  -30.4828  -17.8861 C   0  0  0  0  0  0  0  0  0  0  0  0
  -29.9671  -30.3604  -19.5047 S   0  0  0  0  0  0  0  0  0  0  0  0
  -28.5047  -29.5760  -19.9155 C   0  0  0  0  0  0  0  0  0  0  0  0
  -27.6339  -29.4204  -18.9428 N   0  0  0  0  0  0  0  0  0  0  0  0
  1  2  2  0
  2  3  1  0
  3  4  1  0
  4  5  2  0
  5  6  1  0
  6  7  1  0
  7  8  2  0
  8  9  1  0
  9 10  2  0
 10 11  1  0
 11 12  2  0
  2 13  1  0
 13 14  1  0
 14 15  1  0
 15 16  1  6
 15 17  1  0
 17 18  1  0
 18 19  1  0
 19 20  1  0
 20 21  2  0
 21 22  1  0
 22 23  1  0
 23 24  2  0
 12  4  1  0
 24 20  1  0
 12  7  1  0
M  END
>  <HIPPO Pose ID>  (13) 
93231

>  <fragmenstein_outcome>  (13) 
acceptable

>  <energy_score>  (13) 
-42.714325

>  <distance_score>  (13) 
0.99098

>  <fragmenstein_mode>  (13) 
expansion

>  <HIPPO Compound ID>  (13) 
27296

>  <name>  (13) 
VCDAMRGTJSIZTQ-CQSZACIVSA-N

>  <ref_pdb>  (13) 
z0384a

>  <ref_mols>  (13) 
z0384a,3vws-b

>  <csv_name>  (13) 
RdRp_knitwork_green_site_rna_tunnel_pure_split4000_batch016.csv

>  <fragmenstein_runtime>  (13) 
4.960939

>  <tags>  (13) 
['Fragmenstein placed']

>  <original ID>  (13) 
VCDAMRGTJSIZTQ-CQSZACIVSA-N

>  <fragmenstein_error>  (13) 
None

>  <original SMILES>  (13) 
O=C(Cc1coc2ccccc12)NC[C@H](O)CNCc1cscn1

>  <inchikey>  (13) 
VCDAMRGTJSIZTQ-CQSZACIVSA-N

>  <SLURM_JOB_NAME>  (13) 
BulkDock.place:Flavi_NS5_RdRp:RdRp_knitwork_green_site_rna_tunnel_pure_split4000_batch016

>  <scratch_subdir>  (13) 
/opt/xchem-fragalysis-2/maxwin/BulkDock/SCRATCH/217087/C27296-P120

>  <alias>  (13) 
None

>  <SLURM_JOB_ID>  (13) 
217087

>  <exports>  (13) 
['/opt/xchem-fragalysis-2/maxwin/BulkDock/OUTPUTS/RdRp_knitwork_green_site_rna_tunnel_pure_split4000_batch016_217087.sdf']

$$$$
93276
     RDKit          3D

 18 20  0  0  0  0  0  0  0  0999 V2000
  -25.9469  -29.3739  -22.0626 O   0  0  0  0  0  0  0  0  0  0  0  0
  -26.5196  -29.6744  -20.8019 C   0  0  0  0  0  0  0  0  0  0  0  0
  -25.4917  -30.1224  -19.7775 C   0  0  0  0  0  0  0  0  0  0  0  0
  -24.3143  -30.8844  -20.3459 C   0  0  0  0  0  0  0  0  0  0  0  0
  -24.6454  -32.0918  -21.1450 C   0  0  0  0  0  0  0  0  0  0  0  0
  -25.7199  -32.9659  -21.0663 C   0  0  0  0  0  0  0  0  0  0  0  0
  -25.3959  -34.3347  -22.0863 S   0  0  0  0  0  0  0  0  0  0  0  0
  -23.7828  -33.7566  -22.1375 C   0  0  0  0  0  0  0  0  0  0  0  0
  -22.5440  -34.5834  -21.7403 C   0  0  0  0  0  0  0  0  0  0  0  0
  -22.4845  -35.9385  -21.5388 C   0  0  0  0  0  0  0  0  0  0  0  0
  -21.3009  -36.2607  -20.9515 O   0  0  0  0  0  0  0  0  0  0  0  0
  -20.6129  -35.1019  -20.7612 C   0  0  0  0  0  0  0  0  0  0  0  0
  -19.3782  -34.9880  -20.1286 C   0  0  0  0  0  0  0  0  0  0  0  0
  -18.8364  -33.7002  -20.0346 C   0  0  0  0  0  0  0  0  0  0  0  0
  -19.5142  -32.5897  -20.5430 C   0  0  0  0  0  0  0  0  0  0  0  0
  -20.7623  -32.7353  -21.1607 C   0  0  0  0  0  0  0  0  0  0  0  0
  -21.3191  -34.0266  -21.2799 C   0  0  0  0  0  0  0  0  0  0  0  0
  -23.7186  -32.4468  -22.0906 N   0  0  0  0  0  0  0  0  0  0  0  0
  1  2  1  0
  2  3  1  0
  3  4  1  0
  4  5  1  0
  5  6  2  0
  6  7  1  0
  7  8  1  0
  8  9  1  0
  9 10  2  0
 10 11  1  0
 11 12  1  0
 12 13  2  0
 13 14  1  0
 14 15  2  0
 15 16  1  0
 16 17  2  0
  8 18  2  0
 18  5  1  0
 17  9  1  0
 17 12  1  0
M  END
>  <HIPPO Pose ID>  (14) 
93276

>  <fragmenstein_outcome>  (14) 
acceptable

>  <energy_score>  (14) 
-48.866348

>  <distance_score>  (14) 
0.917257

>  <fragmenstein_mode>  (14) 
expansion

>  <HIPPO Compound ID>  (14) 
40079

>  <name>  (14) 
BEIDEVIRYYMTEA-UHFFFAOYSA-N

>  <ref_pdb>  (14) 
3vws-b

>  <ref_mols>  (14) 
z0384a,3vws-b

>  <csv_name>  (14) 
RdRp_knitwork_green_site_rna_tunnel_pure_split4000_batch016.csv

>  <fragmenstein_runtime>  (14) 
1.413161

>  <tags>  (14) 
['Fragmenstein placed']

>  <original ID>  (14) 
BEIDEVIRYYMTEA-UHFFFAOYSA-N

>  <fragmenstein_error>  (14) 
None

>  <original SMILES>  (14) 
OCCCc1csc(-c2coc3ccccc23)n1

>  <inchikey>  (14) 
BEIDEVIRYYMTEA-UHFFFAOYSA-N

>  <SLURM_JOB_NAME>  (14) 
BulkDock.place:Flavi_NS5_RdRp:RdRp_knitwork_green_site_rna_tunnel_pure_split4000_batch016

>  <scratch_subdir>  (14) 
/opt/xchem-fragalysis-2/maxwin/BulkDock/SCRATCH/217087/C40079-P217

>  <alias>  (14) 
None

>  <SLURM_JOB_ID>  (14) 
217087

>  <exports>  (14) 
['/opt/xchem-fragalysis-2/maxwin/BulkDock/OUTPUTS/RdRp_knitwork_green_site_rna_tunnel_pure_split4000_batch016_217087.sdf']

$$$$
93280
     RDKit          3D

 21 23  0  0  0  0  0  0  0  0999 V2000
  -27.3694  -31.7135  -15.6146 C   0  0  0  0  0  0  0  0  0  0  0  0
  -27.3674  -30.3166  -16.2163 C   0  0  0  0  0  0  0  0  0  0  0  0
  -27.7450  -30.3374  -17.6601 C   0  0  0  0  0  0  0  0  0  0  0  0
  -29.0107  -30.1844  -18.1912 C   0  0  0  0  0  0  0  0  0  0  0  0
  -28.9523  -30.3207  -19.8999 S   0  0  0  0  0  0  0  0  0  0  0  0
  -27.2536  -30.5872  -19.8120 C   0  0  0  0  0  0  0  0  0  0  0  0
  -26.4166  -30.7142  -21.0462 C   0  0  0  0  0  0  0  0  0  0  0  0
  -26.2297  -32.1655  -21.4848 C   0  0  0  0  0  0  0  0  0  0  0  0
  -27.0724  -32.9727  -21.3979 O   0  0  0  0  0  0  0  0  0  0  0  0
  -24.8065  -32.2548  -22.1180 N   0  0  0  0  0  0  0  0  0  0  0  0
  -24.1772  -33.3180  -22.8494 C   0  0  0  0  0  0  0  0  0  0  0  0
  -23.1810  -34.0028  -21.9881 C   0  0  0  0  0  0  0  0  0  0  0  0
  -23.2454  -35.3071  -21.5340 C   0  0  0  0  0  0  0  0  0  0  0  0
  -22.1680  -35.6181  -20.7695 O   0  0  0  0  0  0  0  0  0  0  0  0
  -21.3934  -34.5015  -20.7069 C   0  0  0  0  0  0  0  0  0  0  0  0
  -20.2005  -34.3852  -19.9942 C   0  0  0  0  0  0  0  0  0  0  0  0
  -19.5403  -33.1556  -20.0738 C   0  0  0  0  0  0  0  0  0  0  0  0
  -20.0665  -32.1058  -20.8293 C   0  0  0  0  0  0  0  0  0  0  0  0
  -21.2675  -32.2549  -21.5383 C   0  0  0  0  0  0  0  0  0  0  0  0
  -21.9545  -33.4812  -21.4662 C   0  0  0  0  0  0  0  0  0  0  0  0
  -26.7456  -30.5431  -18.5968 N   0  0  0  0  0  0  0  0  0  0  0  0
  1  2  1  0
  2  3  1  0
  3  4  2  0
  4  5  1  0
  5  6  1  0
  6  7  1  0
  7  8  1  0
  8  9  2  0
  8 10  1  0
 10 11  1  0
 11 12  1  0
 12 13  2  0
 13 14  1  0
 14 15  1  0
 15 16  2  0
 16 17  1  0
 17 18  2  0
 18 19  1  0
 19 20  2  0
  6 21  2  0
 21  3  1  0
 20 12  1  0
 20 15  1  0
M  END
>  <HIPPO Pose ID>  (15) 
93280

>  <fragmenstein_outcome>  (15) 
acceptable

>  <energy_score>  (15) 
-35.531391

>  <distance_score>  (15) 
0.966682

>  <fragmenstein_mode>  (15) 
expansion

>  <HIPPO Compound ID>  (15) 
40128

>  <name>  (15) 
SRYFBRJFOUWKMY-UHFFFAOYSA-N

>  <ref_pdb>  (15) 
z0384a

>  <ref_mols>  (15) 
z0384a,3vws-b

>  <csv_name>  (15) 
RdRp_knitwork_green_site_rna_tunnel_pure_split4000_batch016.csv

>  <fragmenstein_runtime>  (15) 
2.639988

>  <tags>  (15) 
['Fragmenstein placed']

>  <original ID>  (15) 
SRYFBRJFOUWKMY-UHFFFAOYSA-N

>  <fragmenstein_error>  (15) 
None

>  <original SMILES>  (15) 
CCc1csc(CC(=O)NCc2coc3ccccc23)n1

>  <inchikey>  (15) 
SRYFBRJFOUWKMY-UHFFFAOYSA-N

>  <SLURM_JOB_NAME>  (15) 
BulkDock.place:Flavi_NS5_RdRp:RdRp_knitwork_green_site_rna_tunnel_pure_split4000_batch016

>  <scratch_subdir>  (15) 
/opt/xchem-fragalysis-2/maxwin/BulkDock/SCRATCH/217087/C40128-P120

>  <alias>  (15) 
None

>  <SLURM_JOB_ID>  (15) 
217087

>  <exports>  (15) 
['/opt/xchem-fragalysis-2/maxwin/BulkDock/OUTPUTS/RdRp_knitwork_green_site_rna_tunnel_pure_split4000_batch016_217087.sdf']

$$$$
93386
     RDKit          3D

 23 25  0  0  0  0  0  0  0  0999 V2000
  -26.8998  -31.4880  -15.8151 C   0  0  0  0  0  0  0  0  0  0  0  0
  -27.3459  -30.1458  -16.3955 C   0  0  0  0  0  0  0  0  0  0  0  0
  -28.2503  -29.4150  -15.4070 C   0  0  0  0  0  0  0  0  0  0  0  0
  -27.9933  -30.3205  -17.7385 C   0  0  0  0  0  0  0  0  0  0  0  0
  -29.3394  -30.2533  -18.0461 C   0  0  0  0  0  0  0  0  0  0  0  0
  -29.5821  -30.5276  -19.7137 S   0  0  0  0  0  0  0  0  0  0  0  0
  -27.8878  -30.7540  -19.9090 C   0  0  0  0  0  0  0  0  0  0  0  0
  -27.3585  -31.1510  -21.2513 C   0  0  0  0  0  0  0  0  0  0  0  0
  -25.8788  -30.8513  -21.4440 C   0  0  0  0  0  0  0  0  0  0  0  0
  -24.9988  -31.9799  -21.0561 N   0  0  0  0  0  0  0  0  0  0  0  0
  -24.4336  -32.9537  -22.3297 S   0  0  0  0  0  0  0  0  0  0  0  0
  -25.4773  -33.8860  -22.6922 O   0  0  0  0  0  0  0  0  0  0  0  0
  -23.7746  -32.1200  -23.3030 O   0  0  0  0  0  0  0  0  0  0  0  0
  -23.1781  -33.9175  -21.6797 C   0  0  0  0  0  0  0  0  0  0  0  0
  -23.2307  -35.2669  -21.4255 C   0  0  0  0  0  0  0  0  0  0  0  0
  -22.0984  -35.6684  -20.7852 O   0  0  0  0  0  0  0  0  0  0  0  0
  -21.3162  -34.5607  -20.6342 C   0  0  0  0  0  0  0  0  0  0  0  0
  -20.0824  -34.5243  -19.9851 C   0  0  0  0  0  0  0  0  0  0  0  0
  -19.4144  -33.2955  -19.9712 C   0  0  0  0  0  0  0  0  0  0  0  0
  -19.9754  -32.1648  -20.5671 C   0  0  0  0  0  0  0  0  0  0  0  0
  -21.2268  -32.2265  -21.1950 C   0  0  0  0  0  0  0  0  0  0  0  0
  -21.9181  -33.4529  -21.2211 C   0  0  0  0  0  0  0  0  0  0  0  0
  -27.1683  -30.5840  -18.8211 N   0  0  0  0  0  0  0  0  0  0  0  0
  1  2  1  0
  2  3  1  0
  2  4  1  0
  4  5  2  0
  5  6  1  0
  6  7  1  0
  7  8  1  0
  8  9  1  0
  9 10  1  0
 10 11  1  0
 11 12  2  0
 11 13  2  0
 11 14  1  0
 14 15  2  0
 15 16  1  0
 16 17  1  0
 17 18  2  0
 18 19  1  0
 19 20  2  0
 20 21  1  0
 21 22  2  0
  7 23  2  0
 23  4  1  0
 22 14  1  0
 22 17  1  0
M  END
>  <HIPPO Pose ID>  (16) 
93386

>  <fragmenstein_outcome>  (16) 
acceptable

>  <energy_score>  (16) 
-81.8499

>  <distance_score>  (16) 
0.606091

>  <fragmenstein_mode>  (16) 
expansion

>  <HIPPO Compound ID>  (16) 
40644

>  <name>  (16) 
REQQRHJKXWKXRR-UHFFFAOYSA-N

>  <ref_pdb>  (16) 
z0384a

>  <ref_mols>  (16) 
z0384a,3vws-b

>  <csv_name>  (16) 
RdRp_knitwork_green_site_rna_tunnel_pure_split4000_batch016.csv

>  <fragmenstein_runtime>  (16) 
3.121223

>  <tags>  (16) 
['Fragmenstein placed']

>  <original ID>  (16) 
REQQRHJKXWKXRR-UHFFFAOYSA-N

>  <fragmenstein_error>  (16) 
None

>  <original SMILES>  (16) 
CC(C)c1csc(CCNS(=O)(=O)c2coc3ccccc23)n1

>  <inchikey>  (16) 
REQQRHJKXWKXRR-UHFFFAOYSA-N

>  <SLURM_JOB_NAME>  (16) 
BulkDock.place:Flavi_NS5_RdRp:RdRp_knitwork_green_site_rna_tunnel_pure_split4000_batch016

>  <scratch_subdir>  (16) 
/opt/xchem-fragalysis-2/maxwin/BulkDock/SCRATCH/217087/C40644-P120

>  <alias>  (16) 
None

>  <SLURM_JOB_ID>  (16) 
217087

>  <exports>  (16) 
['/opt/xchem-fragalysis-2/maxwin/BulkDock/OUTPUTS/RdRp_knitwork_green_site_rna_tunnel_pure_split4000_batch016_217087.sdf']

$$$$
93532
     RDKit          3D

 19 21  0  0  0  0  0  0  0  0999 V2000
  -24.4859  -32.0992  -19.1235 C   0  0  0  0  0  0  0  0  0  0  0  0
  -24.9397  -31.1374  -20.2163 C   0  0  0  0  0  0  0  0  0  0  0  0
  -25.9490  -31.7621  -21.1910 C   0  0  1  0  0  0  0  0  0  0  0  0
  -26.8269  -30.7605  -21.7872 C   0  0  0  0  0  0  0  0  0  0  0  0
  -27.5389  -29.9976  -22.2904 N   0  0  0  0  0  0  0  0  0  0  0  0
  -25.2092  -32.5153  -22.2560 C   0  0  0  0  0  0  0  0  0  0  0  0
  -24.7550  -33.7277  -22.0404 N   0  0  0  0  0  0  0  0  0  0  0  0
  -23.5444  -33.8035  -22.6725 C   0  0  0  0  0  0  0  0  0  0  0  0
  -22.5328  -34.5195  -21.9309 C   0  0  0  0  0  0  0  0  0  0  0  0
  -22.5766  -35.8077  -21.4621 C   0  0  0  0  0  0  0  0  0  0  0  0
  -21.5523  -36.0187  -20.5911 O   0  0  0  0  0  0  0  0  0  0  0  0
  -20.8789  -34.8365  -20.4744 C   0  0  0  0  0  0  0  0  0  0  0  0
  -19.7741  -34.6118  -19.6563 C   0  0  0  0  0  0  0  0  0  0  0  0
  -19.2238  -33.3253  -19.6843 C   0  0  0  0  0  0  0  0  0  0  0  0
  -19.7756  -32.3178  -20.4785 C   0  0  0  0  0  0  0  0  0  0  0  0
  -20.8849  -32.5722  -21.2938 C   0  0  0  0  0  0  0  0  0  0  0  0
  -21.4334  -33.8716  -21.3065 C   0  0  0  0  0  0  0  0  0  0  0  0
  -23.3603  -32.9486  -23.7356 C   0  0  0  0  0  0  0  0  0  0  0  0
  -24.6327  -31.7995  -23.7194 S   0  0  0  0  0  0  0  0  0  0  0  0
  1  2  1  0
  3  2  1  1
  3  4  1  0
  4  5  3  0
  3  6  1  0
  6  7  2  0
  7  8  1  0
  8  9  1  0
  9 10  2  0
 10 11  1  0
 11 12  1  0
 12 13  2  0
 13 14  1  0
 14 15  2  0
 15 16  1  0
 16 17  2  0
  8 18  2  0
 18 19  1  0
 19  6  1  0
 17  9  1  0
 17 12  1  0
M  END
>  <HIPPO Pose ID>  (17) 
93532

>  <fragmenstein_outcome>  (17) 
acceptable

>  <energy_score>  (17) 
-29.672427

>  <distance_score>  (17) 
0.912814

>  <fragmenstein_mode>  (17) 
expansion

>  <HIPPO Compound ID>  (17) 
29539

>  <name>  (17) 
GCSGGDOPTGKRAF-JTQLQIEISA-N

>  <ref_pdb>  (17) 
z0384a

>  <ref_mols>  (17) 
z0384a,3vws-b

>  <csv_name>  (17) 
RdRp_knitwork_green_site_rna_tunnel_pure_split4000_batch016.csv

>  <fragmenstein_runtime>  (17) 
1.367702

>  <tags>  (17) 
['Fragmenstein placed']

>  <original ID>  (17) 
GCSGGDOPTGKRAF-JTQLQIEISA-N

>  <fragmenstein_error>  (17) 
None

>  <original SMILES>  (17) 
CC[C@@H](C#N)c1nc(-c2coc3ccccc23)cs1

>  <inchikey>  (17) 
GCSGGDOPTGKRAF-JTQLQIEISA-N

>  <SLURM_JOB_NAME>  (17) 
BulkDock.place:Flavi_NS5_RdRp:RdRp_knitwork_green_site_rna_tunnel_pure_split4000_batch016

>  <scratch_subdir>  (17) 
/opt/xchem-fragalysis-2/maxwin/BulkDock/SCRATCH/217087/C29539-P120

>  <alias>  (17) 
None

>  <SLURM_JOB_ID>  (17) 
217087

>  <exports>  (17) 
['/opt/xchem-fragalysis-2/maxwin/BulkDock/OUTPUTS/RdRp_knitwork_green_site_rna_tunnel_pure_split4000_batch016_217087.sdf']

$$$$
93535
     RDKit          3D

 19 21  0  0  0  0  0  0  0  0999 V2000
  -23.7227  -32.1223  -18.7558 C   0  0  0  0  0  0  0  0  0  0  0  0
  -24.1090  -31.0117  -19.7270 C   0  0  0  0  0  0  0  0  0  0  0  0
  -25.3201  -31.3709  -20.6056 C   0  0  1  0  0  0  0  0  0  0  0  0
  -25.9669  -30.1538  -21.0701 C   0  0  0  0  0  0  0  0  0  0  0  0
  -26.4666  -29.1988  -21.4888 N   0  0  0  0  0  0  0  0  0  0  0  0
  -24.8812  -32.2227  -21.7640 C   0  0  0  0  0  0  0  0  0  0  0  0
  -24.6427  -33.5027  -21.6073 N   0  0  0  0  0  0  0  0  0  0  0  0
  -23.6605  -33.8443  -22.4918 C   0  0  0  0  0  0  0  0  0  0  0  0
  -22.6214  -34.6765  -21.9346 C   0  0  0  0  0  0  0  0  0  0  0  0
  -22.6311  -36.0144  -21.6438 C   0  0  0  0  0  0  0  0  0  0  0  0
  -21.5065  -36.3359  -20.9467 O   0  0  0  0  0  0  0  0  0  0  0  0
  -20.8050  -35.1851  -20.7481 C   0  0  0  0  0  0  0  0  0  0  0  0
  -19.6144  -35.0710  -20.0362 C   0  0  0  0  0  0  0  0  0  0  0  0
  -19.0584  -33.7888  -19.9404 C   0  0  0  0  0  0  0  0  0  0  0  0
  -19.6807  -32.6822  -20.5234 C   0  0  0  0  0  0  0  0  0  0  0  0
  -20.8825  -32.8273  -21.2274 C   0  0  0  0  0  0  0  0  0  0  0  0
  -21.4491  -34.1152  -21.3517 C   0  0  0  0  0  0  0  0  0  0  0  0
  -23.5672  -33.0637  -23.6208 C   0  0  0  0  0  0  0  0  0  0  0  0
  -24.4376  -31.6130  -23.3246 S   0  0  0  0  0  0  0  0  0  0  0  0
  1  2  1  0
  3  2  1  6
  3  4  1  0
  4  5  3  0
  3  6  1  0
  6  7  2  0
  7  8  1  0
  8  9  1  0
  9 10  2  0
 10 11  1  0
 11 12  1  0
 12 13  2  0
 13 14  1  0
 14 15  2  0
 15 16  1  0
 16 17  2  0
  8 18  2  0
 18 19  1  0
 19  6  1  0
 17  9  1  0
 17 12  1  0
M  END
>  <HIPPO Pose ID>  (18) 
93535

>  <fragmenstein_outcome>  (18) 
acceptable

>  <energy_score>  (18) 
-28.528406

>  <distance_score>  (18) 
0.974042

>  <fragmenstein_mode>  (18) 
expansion

>  <HIPPO Compound ID>  (18) 
29539

>  <name>  (18) 
GCSGGDOPTGKRAF-JTQLQIEISA-N

>  <ref_pdb>  (18) 
3vws-b

>  <ref_mols>  (18) 
z0384a,3vws-b

>  <csv_name>  (18) 
RdRp_knitwork_green_site_rna_tunnel_pure_split4000_batch016.csv

>  <fragmenstein_runtime>  (18) 
1.707536

>  <tags>  (18) 
['Fragmenstein placed']

>  <original ID>  (18) 
GCSGGDOPTGKRAF-JTQLQIEISA-N

>  <fragmenstein_error>  (18) 
None

>  <original SMILES>  (18) 
CC[C@@H](C#N)c1nc(-c2coc3ccccc23)cs1

>  <inchikey>  (18) 
GCSGGDOPTGKRAF-JTQLQIEISA-N

>  <SLURM_JOB_NAME>  (18) 
BulkDock.place:Flavi_NS5_RdRp:RdRp_knitwork_green_site_rna_tunnel_pure_split4000_batch016

>  <scratch_subdir>  (18) 
/opt/xchem-fragalysis-2/maxwin/BulkDock/SCRATCH/217087/C29539-P217

>  <alias>  (18) 
None

>  <SLURM_JOB_ID>  (18) 
217087

>  <exports>  (18) 
['/opt/xchem-fragalysis-2/maxwin/BulkDock/OUTPUTS/RdRp_knitwork_green_site_rna_tunnel_pure_split4000_batch016_217087.sdf']

$$$$
93617
     RDKit          3D

 18 20  0  0  0  0  0  0  0  0999 V2000
  -25.0913  -31.1997  -20.1191 C   0  0  0  0  0  0  0  0  0  0  0  0
  -26.1495  -31.7241  -21.0945 C   0  0  1  0  0  0  0  0  0  0  0  0
  -27.1331  -30.6586  -21.5854 C   0  0  0  0  0  0  0  0  0  0  0  0
  -27.9199  -30.0466  -20.5158 N   0  0  0  0  0  0  0  0  0  0  0  0
  -25.4014  -32.4095  -22.2085 C   0  0  0  0  0  0  0  0  0  0  0  0
  -24.8957  -33.6102  -22.0408 N   0  0  0  0  0  0  0  0  0  0  0  0
  -23.6723  -33.6105  -22.6557 C   0  0  0  0  0  0  0  0  0  0  0  0
  -22.6469  -34.3622  -21.9642 C   0  0  0  0  0  0  0  0  0  0  0  0
  -22.6926  -35.6693  -21.5474 C   0  0  0  0  0  0  0  0  0  0  0  0
  -21.6504  -35.9291  -20.7118 O   0  0  0  0  0  0  0  0  0  0  0  0
  -20.9596  -34.7607  -20.5639 C   0  0  0  0  0  0  0  0  0  0  0  0
  -19.8377  -34.5816  -19.7565 C   0  0  0  0  0  0  0  0  0  0  0  0
  -19.2679  -33.3038  -19.7480 C   0  0  0  0  0  0  0  0  0  0  0  0
  -19.8183  -32.2610  -20.4960 C   0  0  0  0  0  0  0  0  0  0  0  0
  -20.9477  -32.4690  -21.2977 C   0  0  0  0  0  0  0  0  0  0  0  0
  -21.5186  -33.7576  -21.3470 C   0  0  0  0  0  0  0  0  0  0  0  0
  -23.5071  -32.6891  -23.6658 C   0  0  0  0  0  0  0  0  0  0  0  0
  -24.8308  -31.5965  -23.6188 S   0  0  0  0  0  0  0  0  0  0  0  0
  2  1  1  1
  2  3  1  0
  3  4  1  0
  2  5  1  0
  5  6  2  0
  6  7  1  0
  7  8  1  0
  8  9  2  0
  9 10  1  0
 10 11  1  0
 11 12  2  0
 12 13  1  0
 13 14  2  0
 14 15  1  0
 15 16  2  0
  7 17  2  0
 17 18  1  0
 18  5  1  0
 16  8  1  0
 16 11  1  0
M  END
>  <HIPPO Pose ID>  (19) 
93617

>  <fragmenstein_outcome>  (19) 
acceptable

>  <energy_score>  (19) 
-37.441758

>  <distance_score>  (19) 
0.873459

>  <fragmenstein_mode>  (19) 
expansion

>  <HIPPO Compound ID>  (19) 
30798

>  <name>  (19) 
XIUWUNNPFYGYCI-VIFPVBQESA-N

>  <ref_pdb>  (19) 
z0384a

>  <ref_mols>  (19) 
z0384a,3vws-b

>  <csv_name>  (19) 
RdRp_knitwork_green_site_rna_tunnel_pure_split4000_batch016.csv

>  <fragmenstein_runtime>  (19) 
1.248496

>  <tags>  (19) 
['Fragmenstein placed']

>  <original ID>  (19) 
XIUWUNNPFYGYCI-VIFPVBQESA-N

>  <fragmenstein_error>  (19) 
None

>  <original SMILES>  (19) 
C[C@@H](CN)c1nc(-c2coc3ccccc23)cs1

>  <inchikey>  (19) 
XIUWUNNPFYGYCI-VIFPVBQESA-N

>  <SLURM_JOB_NAME>  (19) 
BulkDock.place:Flavi_NS5_RdRp:RdRp_knitwork_green_site_rna_tunnel_pure_split4000_batch016

>  <scratch_subdir>  (19) 
/opt/xchem-fragalysis-2/maxwin/BulkDock/SCRATCH/217087/C30798-P120

>  <alias>  (19) 
None

>  <SLURM_JOB_ID>  (19) 
217087

>  <exports>  (19) 
['/opt/xchem-fragalysis-2/maxwin/BulkDock/OUTPUTS/RdRp_knitwork_green_site_rna_tunnel_pure_split4000_batch016_217087.sdf']

$$$$
93622
     RDKit          3D

 18 20  0  0  0  0  0  0  0  0999 V2000
  -24.4868  -30.9936  -19.6420 C   0  0  0  0  0  0  0  0  0  0  0  0
  -25.5307  -31.0890  -20.7635 C   0  0  1  0  0  0  0  0  0  0  0  0
  -26.0236  -29.6900  -21.1477 C   0  0  0  0  0  0  0  0  0  0  0  0
  -27.1613  -29.2678  -20.3248 N   0  0  0  0  0  0  0  0  0  0  0  0
  -24.9422  -31.9251  -21.8652 C   0  0  0  0  0  0  0  0  0  0  0  0
  -24.6578  -33.1857  -21.6333 N   0  0  0  0  0  0  0  0  0  0  0  0
  -23.7074  -33.5875  -22.5227 C   0  0  0  0  0  0  0  0  0  0  0  0
  -22.7140  -34.4862  -21.9841 C   0  0  0  0  0  0  0  0  0  0  0  0
  -22.7679  -35.8377  -21.7676 C   0  0  0  0  0  0  0  0  0  0  0  0
  -21.6593  -36.2351  -21.0820 O   0  0  0  0  0  0  0  0  0  0  0  0
  -20.9196  -35.1201  -20.8221 C   0  0  0  0  0  0  0  0  0  0  0  0
  -19.7249  -35.0828  -20.1081 C   0  0  0  0  0  0  0  0  0  0  0  0
  -19.1233  -33.8269  -19.9535 C   0  0  0  0  0  0  0  0  0  0  0  0
  -19.7084  -32.6717  -20.4785 C   0  0  0  0  0  0  0  0  0  0  0  0
  -20.9181  -32.7389  -21.1808 C   0  0  0  0  0  0  0  0  0  0  0  0
  -21.5270  -33.9986  -21.3685 C   0  0  0  0  0  0  0  0  0  0  0  0
  -23.6141  -32.8397  -23.6724 C   0  0  0  0  0  0  0  0  0  0  0  0
  -24.4558  -31.3599  -23.4138 S   0  0  0  0  0  0  0  0  0  0  0  0
  2  1  1  1
  2  3  1  0
  3  4  1  0
  2  5  1  0
  5  6  2  0
  6  7  1  0
  7  8  1  0
  8  9  2  0
  9 10  1  0
 10 11  1  0
 11 12  2  0
 12 13  1  0
 13 14  2  0
 14 15  1  0
 15 16  2  0
  7 17  2  0
 17 18  1  0
 18  5  1  0
 16  8  1  0
 16 11  1  0
M  END
>  <HIPPO Pose ID>  (20) 
93622

>  <fragmenstein_outcome>  (20) 
acceptable

>  <energy_score>  (20) 
-35.880325

>  <distance_score>  (20) 
0.954204

>  <fragmenstein_mode>  (20) 
expansion

>  <HIPPO Compound ID>  (20) 
30798

>  <name>  (20) 
XIUWUNNPFYGYCI-VIFPVBQESA-N

>  <ref_pdb>  (20) 
3vws-b

>  <ref_mols>  (20) 
z0384a,3vws-b

>  <csv_name>  (20) 
RdRp_knitwork_green_site_rna_tunnel_pure_split4000_batch016.csv

>  <fragmenstein_runtime>  (20) 
2.105136

>  <tags>  (20) 
['Fragmenstein placed']

>  <original ID>  (20) 
XIUWUNNPFYGYCI-VIFPVBQESA-N

>  <fragmenstein_error>  (20) 
None

>  <original SMILES>  (20) 
C[C@@H](CN)c1nc(-c2coc3ccccc23)cs1

>  <inchikey>  (20) 
XIUWUNNPFYGYCI-VIFPVBQESA-N

>  <SLURM_JOB_NAME>  (20) 
BulkDock.place:Flavi_NS5_RdRp:RdRp_knitwork_green_site_rna_tunnel_pure_split4000_batch016

>  <scratch_subdir>  (20) 
/opt/xchem-fragalysis-2/maxwin/BulkDock/SCRATCH/217087/C30798-P217

>  <alias>  (20) 
None

>  <SLURM_JOB_ID>  (20) 
217087

>  <exports>  (20) 
['/opt/xchem-fragalysis-2/maxwin/BulkDock/OUTPUTS/RdRp_knitwork_green_site_rna_tunnel_pure_split4000_batch016_217087.sdf']

$$$$
93673
     RDKit          3D

 21 23  0  0  0  0  0  0  0  0999 V2000
  -25.9887  -30.3438  -15.7777 O   0  0  0  0  0  0  0  0  0  0  0  0
  -27.0587  -30.0799  -16.3095 C   0  0  0  0  0  0  0  0  0  0  0  0
  -28.0534  -29.5268  -15.5707 O   0  0  0  0  0  0  0  0  0  0  0  0
  -27.4004  -30.2836  -17.7162 C   0  0  0  0  0  0  0  0  0  0  0  0
  -28.6615  -30.0683  -18.2452 C   0  0  0  0  0  0  0  0  0  0  0  0
  -28.6720  -30.3891  -19.9243 S   0  0  0  0  0  0  0  0  0  0  0  0
  -26.9980  -30.8161  -19.8524 C   0  0  0  0  0  0  0  0  0  0  0  0
  -26.2830  -31.1983  -21.1203 C   0  0  0  0  0  0  0  0  0  0  0  0
  -25.2201  -32.1540  -20.9247 N   0  0  0  0  0  0  0  0  0  0  0  0
  -24.9253  -33.4805  -21.6432 C   0  0  0  0  0  0  0  0  0  0  0  0
  -25.5354  -34.0513  -22.4543 O   0  0  0  0  0  0  0  0  0  0  0  0
  -23.6405  -34.0457  -21.2160 C   0  0  0  0  0  0  0  0  0  0  0  0
  -23.4387  -35.4061  -21.0561 C   0  0  0  0  0  0  0  0  0  0  0  0
  -22.1822  -35.6770  -20.6245 O   0  0  0  0  0  0  0  0  0  0  0  0
  -21.5290  -34.4869  -20.5502 C   0  0  0  0  0  0  0  0  0  0  0  0
  -20.2084  -34.3218  -20.1314 C   0  0  0  0  0  0  0  0  0  0  0  0
  -19.6824  -33.0299  -20.1966 C   0  0  0  0  0  0  0  0  0  0  0  0
  -20.4618  -31.9666  -20.6518 C   0  0  0  0  0  0  0  0  0  0  0  0
  -21.7987  -32.1598  -21.0373 C   0  0  0  0  0  0  0  0  0  0  0  0
  -22.3609  -33.4491  -20.9626 C   0  0  0  0  0  0  0  0  0  0  0  0
  -26.4514  -30.7051  -18.6573 N   0  0  0  0  0  0  0  0  0  0  0  0
  1  2  2  0
  2  3  1  0
  2  4  1  0
  4  5  2  0
  5  6  1  0
  6  7  1  0
  7  8  1  0
  8  9  1  0
  9 10  1  0
 10 11  2  0
 10 12  1  0
 12 13  2  0
 13 14  1  0
 14 15  1  0
 15 16  2  0
 16 17  1  0
 17 18  2  0
 18 19  1  0
 19 20  2  0
  7 21  2  0
 21  4  1  0
 20 12  1  0
 20 15  1  0
M  END
>  <HIPPO Pose ID>  (21) 
93673

>  <fragmenstein_outcome>  (21) 
acceptable

>  <energy_score>  (21) 
-113.175891

>  <distance_score>  (21) 
0.981188

>  <fragmenstein_mode>  (21) 
expansion

>  <HIPPO Compound ID>  (21) 
31217

>  <name>  (21) 
CCIXLUDZRVPTCG-UHFFFAOYSA-N

>  <ref_pdb>  (21) 
z0384a

>  <ref_mols>  (21) 
z0384a,3vws-b

>  <csv_name>  (21) 
RdRp_knitwork_green_site_rna_tunnel_pure_split4000_batch016.csv

>  <fragmenstein_runtime>  (21) 
2.307572

>  <tags>  (21) 
['Fragmenstein placed']

>  <original ID>  (21) 
CCIXLUDZRVPTCG-UHFFFAOYSA-N

>  <fragmenstein_error>  (21) 
None

>  <original SMILES>  (21) 
O=C(O)c1csc(CNC(=O)c2coc3ccccc23)n1

>  <inchikey>  (21) 
CCIXLUDZRVPTCG-UHFFFAOYSA-N

>  <SLURM_JOB_NAME>  (21) 
BulkDock.place:Flavi_NS5_RdRp:RdRp_knitwork_green_site_rna_tunnel_pure_split4000_batch016

>  <scratch_subdir>  (21) 
/opt/xchem-fragalysis-2/maxwin/BulkDock/SCRATCH/217087/C31217-P120

>  <alias>  (21) 
None

>  <SLURM_JOB_ID>  (21) 
217087

>  <exports>  (21) 
['/opt/xchem-fragalysis-2/maxwin/BulkDock/OUTPUTS/RdRp_knitwork_green_site_rna_tunnel_pure_split4000_batch016_217087.sdf']

$$$$
93705
     RDKit          3D

 13 14  0  0  0  0  0  0  0  0999 V2000
  -29.8294  -31.1841  -13.5933 Cl  0  0  0  0  0  0  0  0  0  0  0  0
  -28.9038  -30.5171  -14.8403 C   0  0  0  0  0  0  0  0  0  0  0  0
  -27.6331  -29.9364  -14.7174 C   0  0  0  0  0  0  0  0  0  0  0  0
  -27.1703  -29.4771  -15.8833 N   0  0  0  0  0  0  0  0  0  0  0  0
  -28.1166  -29.8564  -16.7653 N   0  0  0  0  0  0  0  0  0  0  0  0
  -27.8768  -29.6903  -18.1862 C   0  0  0  0  0  0  0  0  0  0  0  0
  -26.4335  -30.0444  -18.5197 C   0  0  0  0  0  0  0  0  0  0  0  0
  -26.1945  -30.0490  -19.9434 N   0  0  0  0  0  0  0  0  0  0  0  0
  -26.4808  -31.0698  -20.8036 C   0  0  0  0  0  0  0  0  0  0  0  0
  -26.0316  -30.6301  -22.0273 C   0  0  0  0  0  0  0  0  0  0  0  0
  -25.5041  -29.3673  -21.9258 N   0  0  0  0  0  0  0  0  0  0  0  0
  -25.5903  -29.0551  -20.6531 C   0  0  0  0  0  0  0  0  0  0  0  0
  -29.1912  -30.4562  -16.1812 C   0  0  0  0  0  0  0  0  0  0  0  0
  1  2  1  0
  2  3  1  0
  3  4  2  0
  4  5  1  0
  5  6  1  0
  6  7  1  0
  7  8  1  0
  8  9  1  0
  9 10  2  0
 10 11  1  0
 11 12  2  0
  5 13  1  0
 13  2  2  0
 12  8  1  0
M  END
>  <HIPPO Pose ID>  (22) 
93705

>  <fragmenstein_outcome>  (22) 
acceptable

>  <energy_score>  (22) 
-17.550974

>  <distance_score>  (22) 
0.966424

>  <fragmenstein_mode>  (22) 
expansion

>  <HIPPO Compound ID>  (22) 
30595

>  <name>  (22) 
UGIJUCBEMPTCDJ-UHFFFAOYSA-N

>  <ref_pdb>  (22) 
d0378a

>  <ref_mols>  (22) 
d0378a,z0936a

>  <csv_name>  (22) 
RdRp_knitwork_green_site_rna_tunnel_pure_split4000_batch002.csv

>  <fragmenstein_runtime>  (22) 
1.719343

>  <tags>  (22) 
['Fragmenstein placed']

>  <original ID>  (22) 
UGIJUCBEMPTCDJ-UHFFFAOYSA-N

>  <fragmenstein_error>  (22) 
None

>  <original SMILES>  (22) 
Clc1cnn(CCn2ccnc2)c1

>  <inchikey>  (22) 
UGIJUCBEMPTCDJ-UHFFFAOYSA-N

>  <SLURM_JOB_NAME>  (22) 
BulkDock.place:Flavi_NS5_RdRp:RdRp_knitwork_green_site_rna_tunnel_pure_split4000_batch002

>  <scratch_subdir>  (22) 
/opt/xchem-fragalysis-2/maxwin/BulkDock/SCRATCH/217073/C30595-P1

>  <alias>  (22) 
None

>  <SLURM_JOB_ID>  (22) 
217073

>  <exports>  (22) 
['/opt/xchem-fragalysis-2/maxwin/BulkDock/OUTPUTS/RdRp_knitwork_green_site_rna_tunnel_pure_split4000_batch002_217073.sdf']

$$$$
93813
     RDKit          3D

 18 19  0  0  0  0  0  0  0  0999 V2000
  -25.5785  -28.7540  -24.5961 C   0  0  0  0  0  0  0  0  0  0  0  0
  -25.7249  -28.2973  -23.1912 C   0  0  0  0  0  0  0  0  0  0  0  0
  -26.3096  -28.9932  -22.2399 N   0  0  0  0  0  0  0  0  0  0  0  0
  -26.3216  -28.2751  -21.0446 C   0  0  0  0  0  0  0  0  0  0  0  0
  -26.6535  -28.9997  -19.7709 C   0  0  0  0  0  0  0  0  0  0  0  0
  -27.8152  -28.4593  -19.0891 N   0  0  0  0  0  0  0  0  0  0  0  0
  -28.4445  -29.4113  -18.1163 C   0  0  1  0  0  0  0  0  0  0  0  0
  -29.0933  -30.6723  -18.7446 C   0  0  0  0  0  0  0  0  0  0  0  0
  -29.7698  -30.3692  -20.0275 C   0  0  0  0  0  0  0  0  0  0  0  0
  -31.1065  -30.0118  -20.2698 C   0  0  0  0  0  0  0  0  0  0  0  0
  -31.2853  -29.5655  -21.5118 N   0  0  0  0  0  0  0  0  0  0  0  0
  -30.0707  -29.6316  -22.0489 N   0  0  0  0  0  0  0  0  0  0  0  0
  -29.1783  -30.2777  -21.2652 C   0  0  0  0  0  0  0  0  0  0  0  0
  -27.5121  -29.8359  -16.9762 C   0  0  0  0  0  0  0  0  0  0  0  0
  -27.6470  -30.8130  -16.2555 O   0  0  0  0  0  0  0  0  0  0  0  0
  -26.4873  -28.9869  -16.7467 O   0  0  0  0  0  0  0  0  0  0  0  0
  -25.8082  -26.9952  -21.1512 C   0  0  0  0  0  0  0  0  0  0  0  0
  -25.1525  -26.7526  -22.7168 S   0  0  0  0  0  0  0  0  0  0  0  0
  1  2  1  0
  2  3  2  0
  3  4  1  0
  4  5  1  0
  5  6  1  0
  6  7  1  0
  7  8  1  6
  8  9  1  0
  9 10  1  0
 10 11  2  0
 11 12  1  0
 12 13  1  0
  7 14  1  0
 14 15  2  0
 14 16  1  0
  4 17  2  0
 17 18  1  0
 18  2  1  0
 13  9  2  0
M  END
>  <HIPPO Pose ID>  (23) 
93813

>  <fragmenstein_outcome>  (23) 
acceptable

>  <energy_score>  (23) 
-82.280946

>  <distance_score>  (23) 
0.96249

>  <fragmenstein_mode>  (23) 
expansion

>  <HIPPO Compound ID>  (23) 
9247

>  <name>  (23) 
RLGKORWBBRTJHJ-JTQLQIEISA-N

>  <ref_pdb>  (23) 
z0496a

>  <ref_mols>  (23) 
z0496a,z0628a

>  <csv_name>  (23) 
RdRp_knitwork_green_site_rna_tunnel_pure_split4000_batch005.csv

>  <fragmenstein_runtime>  (23) 
4.323134

>  <tags>  (23) 
['Fragmenstein placed']

>  <original ID>  (23) 
RLGKORWBBRTJHJ-JTQLQIEISA-N

>  <fragmenstein_error>  (23) 
None

>  <original SMILES>  (23) 
Cc1nc(CN[C@@H](Cc2cn[nH]c2)C(=O)O)cs1

>  <inchikey>  (23) 
RLGKORWBBRTJHJ-JTQLQIEISA-N

>  <SLURM_JOB_NAME>  (23) 
BulkDock.place:Flavi_NS5_RdRp:RdRp_knitwork_green_site_rna_tunnel_pure_split4000_batch005

>  <scratch_subdir>  (23) 
/opt/xchem-fragalysis-2/maxwin/BulkDock/SCRATCH/217076/C9247-P136

>  <alias>  (23) 
None

>  <SLURM_JOB_ID>  (23) 
217076

>  <exports>  (23) 
['/opt/xchem-fragalysis-2/maxwin/BulkDock/OUTPUTS/RdRp_knitwork_green_site_rna_tunnel_pure_split4000_batch005_217076.sdf']

$$$$
93861
     RDKit          3D

 27 29  0  0  0  0  0  0  0  0999 V2000
  -17.6887  -24.6806  -16.3543 C   0  0  0  0  0  0  0  0  0  0  0  0
  -18.7423  -25.0463  -15.2897 C   0  0  0  0  0  0  0  0  0  0  0  0
  -18.4537  -24.1661  -14.0468 C   0  0  0  0  0  0  0  0  0  0  0  0
  -20.1799  -24.7289  -15.8088 C   0  0  0  0  0  0  0  0  0  0  0  0
  -20.6639  -25.4274  -16.9811 N   0  0  0  0  0  0  0  0  0  0  0  0
  -21.4405  -24.9056  -18.2110 C   0  0  0  0  0  0  0  0  0  0  0  0
  -21.7433  -23.8210  -18.5079 O   0  0  0  0  0  0  0  0  0  0  0  0
  -21.9562  -26.0910  -19.1018 C   0  0  0  0  0  0  0  0  0  0  0  0
  -21.2406  -26.7692  -19.7209 O   0  0  0  0  0  0  0  0  0  0  0  0
  -23.4831  -26.1856  -18.8800 N   0  0  0  0  0  0  0  0  0  0  0  0
  -24.4656  -27.0867  -19.4561 C   0  0  2  0  0  0  0  0  0  0  0  0
  -24.8734  -26.7467  -20.8912 C   0  0  0  0  0  0  0  0  0  0  0  0
  -25.7478  -27.7765  -21.4429 N   0  0  0  0  0  0  0  0  0  0  0  0
  -26.7288  -28.3412  -20.6270 C   0  0  0  0  0  0  0  0  0  0  0  0
  -27.6342  -29.2600  -21.1731 C   0  0  0  0  0  0  0  0  0  0  0  0
  -28.5343  -29.9543  -20.3616 C   0  0  0  0  0  0  0  0  0  0  0  0
  -28.5236  -29.7584  -18.9850 C   0  0  0  0  0  0  0  0  0  0  0  0
  -27.6176  -28.8632  -18.4210 C   0  0  0  0  0  0  0  0  0  0  0  0
  -26.7129  -28.1612  -19.2325 C   0  0  0  0  0  0  0  0  0  0  0  0
  -25.7361  -27.1912  -18.6136 C   0  0  0  0  0  0  0  0  0  0  0  0
  -18.6030  -26.5135  -14.8432 C   0  0  0  0  0  0  0  0  0  0  0  0
  -19.4432  -27.0546  -13.8586 C   0  0  0  0  0  0  0  0  0  0  0  0
  -19.2767  -28.3806  -13.4604 C   0  0  0  0  0  0  0  0  0  0  0  0
  -18.2738  -29.1320  -14.0444 C   0  0  0  0  0  0  0  0  0  0  0  0
  -18.0933  -30.4107  -13.6919 F   0  0  0  0  0  0  0  0  0  0  0  0
  -17.4643  -28.5372  -14.9901 C   0  0  0  0  0  0  0  0  0  0  0  0
  -17.6046  -27.2531  -15.3955 N   0  0  0  0  0  0  0  0  0  0  0  0
  1  2  1  0
  2  3  1  0
  2  4  1  0
  4  5  1  0
  5  6  1  0
  6  7  2  0
  6  8  1  0
  8  9  2  0
  8 10  1  0
 11 10  1  1
 11 12  1  0
 12 13  1  0
 13 14  1  0
 14 15  2  0
 15 16  1  0
 16 17  2  0
 17 18  1  0
 18 19  2  0
 19 20  1  0
  2 21  1  0
 21 22  2  0
 22 23  1  0
 23 24  2  0
 24 25  1  0
 24 26  1  0
 26 27  2  0
 20 11  1  0
 27 21  1  0
 19 14  1  0
M  END
>  <HIPPO Pose ID>  (24) 
93861

>  <fragmenstein_outcome>  (24) 
acceptable

>  <energy_score>  (24) 
-16.958238

>  <distance_score>  (24) 
0.941758

>  <fragmenstein_mode>  (24) 
expansion

>  <HIPPO Compound ID>  (24) 
33622

>  <name>  (24) 
PFBDAIXHOMSGAJ-HNNXBMFYSA-N

>  <ref_pdb>  (24) 
z0364a

>  <ref_mols>  (24) 
z0364a,z0637a

>  <csv_name>  (24) 
RdRp_knitwork_green_site_rna_tunnel_pure_split4000_batch007.csv

>  <fragmenstein_runtime>  (24) 
12.88427

>  <tags>  (24) 
['Fragmenstein placed']

>  <original ID>  (24) 
PFBDAIXHOMSGAJ-HNNXBMFYSA-N

>  <fragmenstein_error>  (24) 
None

>  <original SMILES>  (24) 
CC(C)(CNC(=O)C(=O)N[C@@H]1CNc2ccccc2C1)c1ccc(F)cn1

>  <inchikey>  (24) 
PFBDAIXHOMSGAJ-HNNXBMFYSA-N

>  <SLURM_JOB_NAME>  (24) 
BulkDock.place:Flavi_NS5_RdRp:RdRp_knitwork_green_site_rna_tunnel_pure_split4000_batch007

>  <scratch_subdir>  (24) 
/opt/xchem-fragalysis-2/maxwin/BulkDock/SCRATCH/217078/C33622-P118

>  <alias>  (24) 
None

>  <SLURM_JOB_ID>  (24) 
217078

>  <exports>  (24) 
['/opt/xchem-fragalysis-2/maxwin/BulkDock/OUTPUTS/RdRp_knitwork_green_site_rna_tunnel_pure_split4000_batch007_217078.sdf']

$$$$
93880
     RDKit          3D

 19 21  0  0  0  0  0  0  0  0999 V2000
  -26.7048  -34.2189  -20.9591 C   0  0  0  0  0  0  0  0  0  0  0  0
  -25.5566  -33.7258  -21.7594 C   0  0  0  0  0  0  0  0  0  0  0  0
  -24.9050  -34.6286  -22.5969 N   0  0  0  0  0  0  0  0  0  0  0  0
  -23.7025  -34.1017  -22.7429 C   0  0  0  0  0  0  0  0  0  0  0  0
  -22.5116  -34.6711  -21.9109 C   0  0  0  0  0  0  0  0  0  0  0  0
  -22.5252  -35.9337  -21.3699 C   0  0  0  0  0  0  0  0  0  0  0  0
  -21.5069  -36.0743  -20.4843 O   0  0  0  0  0  0  0  0  0  0  0  0
  -20.8447  -34.8831  -20.4499 C   0  0  0  0  0  0  0  0  0  0  0  0
  -19.7484  -34.6031  -19.6361 C   0  0  0  0  0  0  0  0  0  0  0  0
  -19.1938  -33.3249  -19.7444 C   0  0  0  0  0  0  0  0  0  0  0  0
  -19.7266  -32.3820  -20.6225 C   0  0  0  0  0  0  0  0  0  0  0  0
  -20.8221  -32.6945  -21.4386 C   0  0  0  0  0  0  0  0  0  0  0  0
  -21.3944  -33.9824  -21.3588 C   0  0  0  0  0  0  0  0  0  0  0  0
  -23.8456  -32.4233  -23.0729 S   0  0  0  0  0  0  0  0  0  0  0  0
  -24.9112  -32.4881  -21.6965 C   0  0  0  0  0  0  0  0  0  0  0  0
  -24.9107  -31.3567  -20.7357 C   0  0  0  0  0  0  0  0  0  0  0  0
  -26.2890  -30.8874  -20.3348 C   0  0  0  0  0  0  0  0  0  0  0  0
  -27.0324  -30.4887  -21.5272 C   0  0  0  0  0  0  0  0  0  0  0  0
  -27.5767  -30.1793  -22.5007 N   0  0  0  0  0  0  0  0  0  0  0  0
  1  2  1  0
  2  3  1  0
  3  4  2  0
  4  5  1  0
  5  6  2  0
  6  7  1  0
  7  8  1  0
  8  9  2  0
  9 10  1  0
 10 11  2  0
 11 12  1  0
 12 13  2  0
  4 14  1  0
 14 15  1  0
 15 16  1  0
 16 17  1  0
 17 18  1  0
 18 19  3  0
 15  2  2  0
 13  5  1  0
 13  8  1  0
M  END
>  <HIPPO Pose ID>  (25) 
93880

>  <fragmenstein_outcome>  (25) 
acceptable

>  <energy_score>  (25) 
-4.602528

>  <distance_score>  (25) 
0.839271

>  <fragmenstein_mode>  (25) 
expansion

>  <HIPPO Compound ID>  (25) 
34487

>  <name>  (25) 
BJTKWIOIKORMCX-UHFFFAOYSA-N

>  <ref_pdb>  (25) 
z0384a

>  <ref_mols>  (25) 
z0384a,3vws-b

>  <csv_name>  (25) 
RdRp_knitwork_green_site_rna_tunnel_pure_split4000_batch016.csv

>  <fragmenstein_runtime>  (25) 
0.949111

>  <tags>  (25) 
['Fragmenstein placed']

>  <original ID>  (25) 
BJTKWIOIKORMCX-UHFFFAOYSA-N

>  <fragmenstein_error>  (25) 
None

>  <original SMILES>  (25) 
Cc1nc(-c2coc3ccccc23)sc1CCC#N

>  <inchikey>  (25) 
BJTKWIOIKORMCX-UHFFFAOYSA-N

>  <SLURM_JOB_NAME>  (25) 
BulkDock.place:Flavi_NS5_RdRp:RdRp_knitwork_green_site_rna_tunnel_pure_split4000_batch016

>  <scratch_subdir>  (25) 
/opt/xchem-fragalysis-2/maxwin/BulkDock/SCRATCH/217087/C34487-P120

>  <alias>  (25) 
None

>  <SLURM_JOB_ID>  (25) 
217087

>  <exports>  (25) 
['/opt/xchem-fragalysis-2/maxwin/BulkDock/OUTPUTS/RdRp_knitwork_green_site_rna_tunnel_pure_split4000_batch016_217087.sdf']

$$$$
93884
     RDKit          3D

 19 21  0  0  0  0  0  0  0  0999 V2000
  -26.3011  -33.7209  -19.9308 C   0  0  0  0  0  0  0  0  0  0  0  0
  -25.3053  -33.3166  -20.9438 C   0  0  0  0  0  0  0  0  0  0  0  0
  -24.9161  -34.2306  -21.9125 N   0  0  0  0  0  0  0  0  0  0  0  0
  -23.7069  -33.8257  -22.2485 C   0  0  0  0  0  0  0  0  0  0  0  0
  -22.4656  -34.6085  -21.7466 C   0  0  0  0  0  0  0  0  0  0  0  0
  -22.4831  -35.9480  -21.4476 C   0  0  0  0  0  0  0  0  0  0  0  0
  -21.3261  -36.2969  -20.8322 O   0  0  0  0  0  0  0  0  0  0  0  0
  -20.5879  -35.1643  -20.6892 C   0  0  0  0  0  0  0  0  0  0  0  0
  -19.3620  -35.0879  -20.0330 C   0  0  0  0  0  0  0  0  0  0  0  0
  -18.7588  -33.8281  -19.9642 C   0  0  0  0  0  0  0  0  0  0  0  0
  -19.3695  -32.7063  -20.5230 C   0  0  0  0  0  0  0  0  0  0  0  0
  -20.6058  -32.8135  -21.1733 C   0  0  0  0  0  0  0  0  0  0  0  0
  -21.2304  -34.0782  -21.2717 C   0  0  0  0  0  0  0  0  0  0  0  0
  -23.6766  -32.1254  -22.4593 S   0  0  0  0  0  0  0  0  0  0  0  0
  -24.6091  -32.1157  -21.0003 C   0  0  0  0  0  0  0  0  0  0  0  0
  -24.5838  -30.9490  -20.0840 C   0  0  0  0  0  0  0  0  0  0  0  0
  -25.7865  -30.0492  -20.3004 C   0  0  0  0  0  0  0  0  0  0  0  0
  -25.7805  -29.5787  -21.6828 C   0  0  0  0  0  0  0  0  0  0  0  0
  -25.6956  -29.3052  -22.8055 N   0  0  0  0  0  0  0  0  0  0  0  0
  1  2  1  0
  2  3  1  0
  3  4  2  0
  4  5  1  0
  5  6  2  0
  6  7  1  0
  7  8  1  0
  8  9  2  0
  9 10  1  0
 10 11  2  0
 11 12  1  0
 12 13  2  0
  4 14  1  0
 14 15  1  0
 15 16  1  0
 16 17  1  0
 17 18  1  0
 18 19  3  0
 15  2  2  0
 13  5  1  0
 13  8  1  0
M  END
>  <HIPPO Pose ID>  (26) 
93884

>  <fragmenstein_outcome>  (26) 
acceptable

>  <energy_score>  (26) 
-8.875007

>  <distance_score>  (26) 
0.996409

>  <fragmenstein_mode>  (26) 
expansion

>  <HIPPO Compound ID>  (26) 
34487

>  <name>  (26) 
BJTKWIOIKORMCX-UHFFFAOYSA-N

>  <ref_pdb>  (26) 
3vws-b

>  <ref_mols>  (26) 
z0384a,3vws-b

>  <csv_name>  (26) 
RdRp_knitwork_green_site_rna_tunnel_pure_split4000_batch016.csv

>  <fragmenstein_runtime>  (26) 
1.309126

>  <tags>  (26) 
['Fragmenstein placed']

>  <original ID>  (26) 
BJTKWIOIKORMCX-UHFFFAOYSA-N

>  <fragmenstein_error>  (26) 
None

>  <original SMILES>  (26) 
Cc1nc(-c2coc3ccccc23)sc1CCC#N

>  <inchikey>  (26) 
BJTKWIOIKORMCX-UHFFFAOYSA-N

>  <SLURM_JOB_NAME>  (26) 
BulkDock.place:Flavi_NS5_RdRp:RdRp_knitwork_green_site_rna_tunnel_pure_split4000_batch016

>  <scratch_subdir>  (26) 
/opt/xchem-fragalysis-2/maxwin/BulkDock/SCRATCH/217087/C34487-P217

>  <alias>  (26) 
None

>  <SLURM_JOB_ID>  (26) 
217087

>  <exports>  (26) 
['/opt/xchem-fragalysis-2/maxwin/BulkDock/OUTPUTS/RdRp_knitwork_green_site_rna_tunnel_pure_split4000_batch016_217087.sdf']

$$$$
93972
     RDKit          3D

 18 19  0  0  0  0  0  0  0  0999 V2000
  -24.7725  -31.5129  -15.0141 C   0  0  0  0  0  0  0  0  0  0  0  0
  -25.2737  -32.8850  -15.4364 C   0  0  0  0  0  0  0  0  0  0  0  0
  -24.5483  -33.4783  -16.6609 C   0  0  2  0  0  0  0  0  0  0  0  0
  -24.7089  -32.6854  -17.9864 C   0  0  0  0  0  0  0  0  0  0  0  0
  -26.1097  -32.3769  -18.2812 N   0  0  0  0  0  0  0  0  0  0  0  0
  -26.4035  -32.1176  -19.6809 C   0  0  0  0  0  0  0  0  0  0  0  0
  -26.0404  -30.7662  -20.1687 C   0  0  0  0  0  0  0  0  0  0  0  0
  -25.6813  -30.3985  -21.4548 C   0  0  0  0  0  0  0  0  0  0  0  0
  -25.3710  -29.0695  -21.5269 N   0  0  0  0  0  0  0  0  0  0  0  0
  -25.5867  -28.6079  -20.3189 C   0  0  0  0  0  0  0  0  0  0  0  0
  -26.0483  -29.5800  -19.4727 N   0  0  0  0  0  0  0  0  0  0  0  0
  -26.4663  -29.3115  -18.1127 C   0  0  0  0  0  0  0  0  0  0  0  0
  -27.9726  -29.2204  -17.9688 C   0  0  0  0  0  0  0  0  0  0  0  0
  -24.9355  -34.8831  -16.8410 N   0  0  0  0  0  0  0  0  0  0  0  0
  -24.1573  -35.9794  -16.5892 C   0  0  0  0  0  0  0  0  0  0  0  0
  -24.9260  -37.0745  -16.9038 C   0  0  0  0  0  0  0  0  0  0  0  0
  -26.1536  -36.5384  -17.3320 C   0  0  0  0  0  0  0  0  0  0  0  0
  -26.1687  -35.2037  -17.2957 N   0  0  0  0  0  0  0  0  0  0  0  0
  1  2  1  0
  3  2  1  1
  3  4  1  0
  4  5  1  0
  5  6  1  0
  6  7  1  0
  7  8  2  0
  8  9  1  0
  9 10  2  0
 10 11  1  0
 11 12  1  0
 12 13  1  0
  3 14  1  0
 14 15  1  0
 15 16  2  0
 16 17  1  0
 17 18  2  0
 11  7  1  0
 18 14  1  0
M  END
>  <HIPPO Pose ID>  (27) 
93972

>  <fragmenstein_outcome>  (27) 
acceptable

>  <energy_score>  (27) 
-48.094539

>  <distance_score>  (27) 
0.969924

>  <fragmenstein_mode>  (27) 
expansion

>  <HIPPO Compound ID>  (27) 
50536

>  <name>  (27) 
YSJVKKGGBLTACK-GFCCVEGCSA-N

>  <ref_pdb>  (27) 
d0378a

>  <ref_mols>  (27) 
d0378a,z0653a

>  <csv_name>  (27) 
RdRp_knitwork_green_site_rna_tunnel_pure_split4000_batch003.csv

>  <fragmenstein_runtime>  (27) 
2.517753

>  <tags>  (27) 
['Fragmenstein placed']

>  <original ID>  (27) 
YSJVKKGGBLTACK-GFCCVEGCSA-N

>  <fragmenstein_error>  (27) 
None

>  <original SMILES>  (27) 
CC[C@H](CNCc1cncn1CC)n1cccn1

>  <inchikey>  (27) 
YSJVKKGGBLTACK-GFCCVEGCSA-N

>  <SLURM_JOB_NAME>  (27) 
BulkDock.place:Flavi_NS5_RdRp:RdRp_knitwork_green_site_rna_tunnel_pure_split4000_batch003

>  <scratch_subdir>  (27) 
/opt/xchem-fragalysis-2/maxwin/BulkDock/SCRATCH/217074/C50536-P1

>  <alias>  (27) 
None

>  <SLURM_JOB_ID>  (27) 
217074

>  <exports>  (27) 
['/opt/xchem-fragalysis-2/maxwin/BulkDock/OUTPUTS/RdRp_knitwork_green_site_rna_tunnel_pure_split4000_batch003_217074.sdf']

$$$$
93978
     RDKit          3D

 18 19  0  0  0  0  0  0  0  0999 V2000
  -20.5688  -34.5270  -17.8219 C   0  0  0  0  0  0  0  0  0  0  0  0
  -21.9258  -34.4738  -18.5205 C   0  0  0  0  0  0  0  0  0  0  0  0
  -22.1061  -33.2280  -19.4250 C   0  0  2  0  0  0  0  0  0  0  0  0
  -23.5957  -33.0216  -19.8211 C   0  0  0  0  0  0  0  0  0  0  0  0
  -24.5086  -32.7078  -18.6940 N   0  0  0  0  0  0  0  0  0  0  0  0
  -25.8891  -32.5578  -19.1744 C   0  0  0  0  0  0  0  0  0  0  0  0
  -26.1244  -31.3410  -19.9881 C   0  0  0  0  0  0  0  0  0  0  0  0
  -26.1997  -31.1820  -21.3596 C   0  0  0  0  0  0  0  0  0  0  0  0
  -26.5559  -29.9054  -21.6972 N   0  0  0  0  0  0  0  0  0  0  0  0
  -26.6712  -29.2758  -20.5526 C   0  0  0  0  0  0  0  0  0  0  0  0
  -26.3679  -30.0832  -19.4933 N   0  0  0  0  0  0  0  0  0  0  0  0
  -26.3330  -29.6451  -18.1144 C   0  0  0  0  0  0  0  0  0  0  0  0
  -27.7209  -29.4889  -17.5222 C   0  0  0  0  0  0  0  0  0  0  0  0
  -21.2778  -33.2317  -20.6380 N   0  0  0  0  0  0  0  0  0  0  0  0
  -21.2669  -32.2723  -21.6137 C   0  0  0  0  0  0  0  0  0  0  0  0
  -20.4079  -32.7104  -22.5866 C   0  0  0  0  0  0  0  0  0  0  0  0
  -19.8677  -33.8936  -22.0698 C   0  0  0  0  0  0  0  0  0  0  0  0
  -20.4088  -34.2344  -20.8975 N   0  0  0  0  0  0  0  0  0  0  0  0
  1  2  1  0
  3  2  1  6
  3  4  1  0
  4  5  1  0
  5  6  1  0
  6  7  1  0
  7  8  2  0
  8  9  1  0
  9 10  2  0
 10 11  1  0
 11 12  1  0
 12 13  1  0
  3 14  1  0
 14 15  1  0
 15 16  2  0
 16 17  1  0
 17 18  2  0
 11  7  1  0
 18 14  1  0
M  END
>  <HIPPO Pose ID>  (28) 
93978

>  <fragmenstein_outcome>  (28) 
acceptable

>  <energy_score>  (28) 
-46.488806

>  <distance_score>  (28) 
0.887523

>  <fragmenstein_mode>  (28) 
expansion

>  <HIPPO Compound ID>  (28) 
50536

>  <name>  (28) 
YSJVKKGGBLTACK-GFCCVEGCSA-N

>  <ref_pdb>  (28) 
z0653a

>  <ref_mols>  (28) 
d0378a,z0653a

>  <csv_name>  (28) 
RdRp_knitwork_green_site_rna_tunnel_pure_split4000_batch003.csv

>  <fragmenstein_runtime>  (28) 
2.647146

>  <tags>  (28) 
['Fragmenstein placed']

>  <original ID>  (28) 
YSJVKKGGBLTACK-GFCCVEGCSA-N

>  <fragmenstein_error>  (28) 
None

>  <original SMILES>  (28) 
CC[C@H](CNCc1cncn1CC)n1cccn1

>  <inchikey>  (28) 
YSJVKKGGBLTACK-GFCCVEGCSA-N

>  <SLURM_JOB_NAME>  (28) 
BulkDock.place:Flavi_NS5_RdRp:RdRp_knitwork_green_site_rna_tunnel_pure_split4000_batch003

>  <scratch_subdir>  (28) 
/opt/xchem-fragalysis-2/maxwin/BulkDock/SCRATCH/217074/C50536-P153

>  <alias>  (28) 
None

>  <SLURM_JOB_ID>  (28) 
217074

>  <exports>  (28) 
['/opt/xchem-fragalysis-2/maxwin/BulkDock/OUTPUTS/RdRp_knitwork_green_site_rna_tunnel_pure_split4000_batch003_217074.sdf']

$$$$
93985
     RDKit          3D

 17 19  0  0  0  0  0  0  0  0999 V2000
  -27.2331  -30.5607  -21.4105 C   0  0  0  0  0  0  0  0  0  0  0  0
  -26.0905  -31.4324  -20.9439 C   0  0  2  0  0  0  0  0  0  0  0  0
  -25.1056  -30.6505  -20.2689 O   0  0  0  0  0  0  0  0  0  0  0  0
  -25.3712  -32.1822  -22.0207 C   0  0  0  0  0  0  0  0  0  0  0  0
  -24.8581  -33.3691  -21.7868 N   0  0  0  0  0  0  0  0  0  0  0  0
  -23.7158  -33.4813  -22.5345 C   0  0  0  0  0  0  0  0  0  0  0  0
  -22.6788  -34.2792  -21.9180 C   0  0  0  0  0  0  0  0  0  0  0  0
  -22.7279  -35.5989  -21.5446 C   0  0  0  0  0  0  0  0  0  0  0  0
  -21.6682  -35.8948  -20.7425 O   0  0  0  0  0  0  0  0  0  0  0  0
  -20.9609  -34.7382  -20.5762 C   0  0  0  0  0  0  0  0  0  0  0  0
  -19.8226  -34.5912  -19.7854 C   0  0  0  0  0  0  0  0  0  0  0  0
  -19.2382  -33.3201  -19.7573 C   0  0  0  0  0  0  0  0  0  0  0  0
  -19.7894  -32.2534  -20.4707 C   0  0  0  0  0  0  0  0  0  0  0  0
  -20.9368  -32.4285  -21.2541 C   0  0  0  0  0  0  0  0  0  0  0  0
  -21.5242  -33.7085  -21.3198 C   0  0  0  0  0  0  0  0  0  0  0  0
  -23.6008  -32.6154  -23.5979 C   0  0  0  0  0  0  0  0  0  0  0  0
  -24.8731  -31.4655  -23.5033 S   0  0  0  0  0  0  0  0  0  0  0  0
  2  1  1  6
  2  3  1  0
  2  4  1  0
  4  5  2  0
  5  6  1  0
  6  7  1  0
  7  8  2  0
  8  9  1  0
  9 10  1  0
 10 11  2  0
 11 12  1  0
 12 13  2  0
 13 14  1  0
 14 15  2  0
  6 16  2  0
 16 17  1  0
 17  4  1  0
 15  7  1  0
 15 10  1  0
M  END
>  <HIPPO Pose ID>  (29) 
93985

>  <fragmenstein_outcome>  (29) 
acceptable

>  <energy_score>  (29) 
-56.133149

>  <distance_score>  (29) 
0.876659

>  <fragmenstein_mode>  (29) 
expansion

>  <HIPPO Compound ID>  (29) 
35789

>  <name>  (29) 
DWZHUBCFZQUCDW-QMMMGPOBSA-N

>  <ref_pdb>  (29) 
z0384a

>  <ref_mols>  (29) 
z0384a,3vws-b

>  <csv_name>  (29) 
RdRp_knitwork_green_site_rna_tunnel_pure_split4000_batch016.csv

>  <fragmenstein_runtime>  (29) 
1.263124

>  <tags>  (29) 
['Fragmenstein placed']

>  <original ID>  (29) 
DWZHUBCFZQUCDW-QMMMGPOBSA-N

>  <fragmenstein_error>  (29) 
None

>  <original SMILES>  (29) 
C[C@H](O)c1nc(-c2coc3ccccc23)cs1

>  <inchikey>  (29) 
DWZHUBCFZQUCDW-QMMMGPOBSA-N

>  <SLURM_JOB_NAME>  (29) 
BulkDock.place:Flavi_NS5_RdRp:RdRp_knitwork_green_site_rna_tunnel_pure_split4000_batch016

>  <scratch_subdir>  (29) 
/opt/xchem-fragalysis-2/maxwin/BulkDock/SCRATCH/217087/C35789-P120

>  <alias>  (29) 
None

>  <SLURM_JOB_ID>  (29) 
217087

>  <exports>  (29) 
['/opt/xchem-fragalysis-2/maxwin/BulkDock/OUTPUTS/RdRp_knitwork_green_site_rna_tunnel_pure_split4000_batch016_217087.sdf']

$$$$
94103
     RDKit          3D

 23 25  0  0  0  0  0  0  0  0999 V2000
  -24.0491  -31.4636  -20.5543 C   0  0  0  0  0  0  0  0  0  0  0  0
  -25.2304  -30.6773  -20.5075 O   0  0  0  0  0  0  0  0  0  0  0  0
  -26.2908  -31.2140  -21.3040 C   0  0  0  0  0  0  0  0  0  0  0  0
  -27.2226  -32.1462  -20.5006 C   0  0  1  0  0  0  0  0  0  0  0  0
  -26.5487  -33.3507  -20.0475 O   0  0  0  0  0  0  0  0  0  0  0  0
  -26.3208  -34.2843  -21.0127 C   0  0  0  0  0  0  0  0  0  0  0  0
  -26.7188  -34.1881  -22.1664 O   0  0  0  0  0  0  0  0  0  0  0  0
  -25.5702  -35.4853  -20.4793 C   0  0  0  0  0  0  0  0  0  0  0  0
  -24.5801  -36.0674  -21.5054 C   0  0  0  0  0  0  0  0  0  0  0  0
  -23.3368  -35.2550  -21.5570 C   0  0  0  0  0  0  0  0  0  0  0  0
  -22.9381  -34.1800  -22.3228 C   0  0  0  0  0  0  0  0  0  0  0  0
  -21.7459  -33.6861  -21.7271 C   0  0  0  0  0  0  0  0  0  0  0  0
  -20.9224  -32.5619  -21.9123 C   0  0  0  0  0  0  0  0  0  0  0  0
  -19.8429  -32.3728  -21.0381 C   0  0  0  0  0  0  0  0  0  0  0  0
  -19.5498  -33.3003  -20.0357 C   0  0  0  0  0  0  0  0  0  0  0  0
  -20.3502  -34.4303  -19.8441 C   0  0  0  0  0  0  0  0  0  0  0  0
  -21.4462  -34.5647  -20.6935 C   0  0  0  0  0  0  0  0  0  0  0  0
  -22.3946  -35.5382  -20.6124 O   0  0  0  0  0  0  0  0  0  0  0  0
  -27.7811  -31.4155  -19.2940 C   0  0  0  0  0  0  0  0  0  0  0  0
  -27.2017  -31.3199  -18.1119 N   0  0  0  0  0  0  0  0  0  0  0  0
  -27.9685  -30.5473  -17.2653 C   0  0  0  0  0  0  0  0  0  0  0  0
  -29.1520  -30.0837  -17.7916 C   0  0  0  0  0  0  0  0  0  0  0  0
  -29.2979  -30.5888  -19.4215 S   0  0  0  0  0  0  0  0  0  0  0  0
  1  2  1  0
  2  3  1  0
  4  3  1  1
  4  5  1  0
  5  6  1  0
  6  7  2  0
  6  8  1  0
  8  9  1  0
  9 10  1  0
 10 11  2  0
 11 12  1  0
 12 13  2  0
 13 14  1  0
 14 15  2  0
 15 16  1  0
 16 17  2  0
 17 18  1  0
  4 19  1  0
 19 20  2  0
 20 21  1  0
 21 22  2  0
 22 23  1  0
 18 10  1  0
 23 19  1  0
 17 12  1  0
M  END
>  <HIPPO Pose ID>  (30) 
94103

>  <fragmenstein_outcome>  (30) 
acceptable

>  <energy_score>  (30) 
-90.377371

>  <distance_score>  (30) 
0.942068

>  <fragmenstein_mode>  (30) 
expansion

>  <HIPPO Compound ID>  (30) 
36206

>  <name>  (30) 
YTEOINSOTISOTF-OAHLLOKOSA-N

>  <ref_pdb>  (30) 
z0384a

>  <ref_mols>  (30) 
z0384a,3vws-b

>  <csv_name>  (30) 
RdRp_knitwork_green_site_rna_tunnel_pure_split4000_batch016.csv

>  <fragmenstein_runtime>  (30) 
3.376985

>  <tags>  (30) 
['Fragmenstein placed']

>  <original ID>  (30) 
YTEOINSOTISOTF-OAHLLOKOSA-N

>  <fragmenstein_error>  (30) 
None

>  <original SMILES>  (30) 
COC[C@@H](OC(=O)CCc1cc2ccccc2o1)c1nccs1

>  <inchikey>  (30) 
YTEOINSOTISOTF-OAHLLOKOSA-N

>  <SLURM_JOB_NAME>  (30) 
BulkDock.place:Flavi_NS5_RdRp:RdRp_knitwork_green_site_rna_tunnel_pure_split4000_batch016

>  <scratch_subdir>  (30) 
/opt/xchem-fragalysis-2/maxwin/BulkDock/SCRATCH/217087/C36206-P120

>  <alias>  (30) 
None

>  <SLURM_JOB_ID>  (30) 
217087

>  <exports>  (30) 
['/opt/xchem-fragalysis-2/maxwin/BulkDock/OUTPUTS/RdRp_knitwork_green_site_rna_tunnel_pure_split4000_batch016_217087.sdf']

$$$$
94240
     RDKit          3D

 23 26  0  0  0  0  0  0  0  0999 V2000
  -17.2313  -22.8724  -20.1636 C   0  0  0  0  0  0  0  0  0  0  0  0
  -16.3771  -23.1765  -19.1192 C   0  0  0  0  0  0  0  0  0  0  0  0
  -16.7460  -23.9195  -18.0541 N   0  0  0  0  0  0  0  0  0  0  0  0
  -18.0268  -24.3664  -18.0315 C   0  0  0  0  0  0  0  0  0  0  0  0
  -18.9744  -24.1366  -19.0364 C   0  0  0  0  0  0  0  0  0  0  0  0
  -20.4415  -24.5315  -18.9315 C   0  0  2  0  0  0  0  0  0  0  0  0
  -20.9184  -24.8094  -17.5055 C   0  0  0  0  0  0  0  0  0  0  0  0
  -22.2840  -25.4409  -17.5597 C   0  0  0  0  0  0  0  0  0  0  0  0
  -23.0593  -25.1013  -18.7978 C   0  0  0  0  0  0  0  0  0  0  0  0
  -22.4966  -25.7980  -19.9850 C   0  0  2  0  0  0  0  0  0  0  0  0
  -22.9382  -27.1966  -20.0664 N   0  0  0  0  0  0  0  0  0  0  0  0
  -24.3865  -27.4726  -20.2493 C   0  0  2  0  0  0  0  0  0  0  0  0
  -25.0181  -27.1170  -21.6035 C   0  0  0  0  0  0  0  0  0  0  0  0
  -26.2344  -27.8927  -21.8544 N   0  0  0  0  0  0  0  0  0  0  0  0
  -26.9240  -28.4801  -20.7922 C   0  0  0  0  0  0  0  0  0  0  0  0
  -27.9868  -29.3496  -21.0609 C   0  0  0  0  0  0  0  0  0  0  0  0
  -28.6962  -29.9546  -20.0229 C   0  0  0  0  0  0  0  0  0  0  0  0
  -28.3624  -29.6781  -18.6997 C   0  0  0  0  0  0  0  0  0  0  0  0
  -27.3306  -28.7840  -18.4136 C   0  0  0  0  0  0  0  0  0  0  0  0
  -26.6160  -28.1748  -19.4535 C   0  0  0  0  0  0  0  0  0  0  0  0
  -25.4666  -27.2261  -19.1683 C   0  0  0  0  0  0  0  0  0  0  0  0
  -20.9479  -25.7393  -19.7790 C   0  0  0  0  0  0  0  0  0  0  0  0
  -18.5379  -23.3604  -20.1191 C   0  0  0  0  0  0  0  0  0  0  0  0
  1  2  2  0
  2  3  1  0
  3  4  2  0
  4  5  1  0
  6  5  1  1
  6  7  1  0
  7  8  1  0
  8  9  1  0
  9 10  1  0
 10 11  1  1
 12 11  1  1
 12 13  1  0
 13 14  1  0
 14 15  1  0
 15 16  2  0
 16 17  1  0
 17 18  2  0
 18 19  1  0
 19 20  2  0
 20 21  1  0
 10 22  1  0
  5 23  2  0
 23  1  1  0
 22  6  1  0
 21 12  1  0
 20 15  1  0
M  END
>  <HIPPO Pose ID>  (31) 
94240

>  <fragmenstein_outcome>  (31) 
acceptable

>  <energy_score>  (31) 
-44.068586

>  <distance_score>  (31) 
0.903494

>  <fragmenstein_mode>  (31) 
expansion

>  <HIPPO Compound ID>  (31) 
34321

>  <name>  (31) 
GEGBVVNPMJIERT-MNEFBYGVSA-N

>  <ref_pdb>  (31) 
z0364a

>  <ref_mols>  (31) 
z0364a,z0637a

>  <csv_name>  (31) 
RdRp_knitwork_green_site_rna_tunnel_pure_split4000_batch007.csv

>  <fragmenstein_runtime>  (31) 
10.455562

>  <tags>  (31) 
['Fragmenstein placed']

>  <original ID>  (31) 
GEGBVVNPMJIERT-MNEFBYGVSA-N

>  <fragmenstein_error>  (31) 
None

>  <original SMILES>  (31) 
c1cncc([C@@H]2CCC[C@H](N[C@@H]3CNc4ccccc4C3)C2)c1

>  <inchikey>  (31) 
GEGBVVNPMJIERT-MNEFBYGVSA-N

>  <SLURM_JOB_NAME>  (31) 
BulkDock.place:Flavi_NS5_RdRp:RdRp_knitwork_green_site_rna_tunnel_pure_split4000_batch007

>  <scratch_subdir>  (31) 
/opt/xchem-fragalysis-2/maxwin/BulkDock/SCRATCH/217078/C34321-P118

>  <alias>  (31) 
None

>  <SLURM_JOB_ID>  (31) 
217078

>  <exports>  (31) 
['/opt/xchem-fragalysis-2/maxwin/BulkDock/OUTPUTS/RdRp_knitwork_green_site_rna_tunnel_pure_split4000_batch007_217078.sdf']

$$$$
94358
     RDKit          3D

 22 24  0  0  0  0  0  0  0  0999 V2000
  -20.4144  -24.6587  -16.6127 C   0  0  0  0  0  0  0  0  0  0  0  0
  -20.6445  -25.0887  -18.0520 C   0  0  1  0  0  0  0  0  0  0  0  0
  -21.9635  -25.5619  -18.3562 N   0  0  0  0  0  0  0  0  0  0  0  0
  -22.4330  -26.6166  -19.3699 C   0  0  0  0  0  0  0  0  0  0  0  0
  -21.8335  -27.3022  -20.0431 O   0  0  0  0  0  0  0  0  0  0  0  0
  -23.9454  -26.5365  -19.1321 N   0  0  0  0  0  0  0  0  0  0  0  0
  -25.0061  -27.3646  -19.6208 C   0  0  2  0  0  0  0  0  0  0  0  0
  -25.3704  -27.0846  -21.0811 C   0  0  0  0  0  0  0  0  0  0  0  0
  -26.4213  -27.9796  -21.5623 N   0  0  0  0  0  0  0  0  0  0  0  0
  -27.2060  -28.6845  -20.6492 C   0  0  0  0  0  0  0  0  0  0  0  0
  -28.1062  -29.6456  -21.1136 C   0  0  0  0  0  0  0  0  0  0  0  0
  -28.9179  -30.3524  -20.2237 C   0  0  0  0  0  0  0  0  0  0  0  0
  -28.8563  -30.0917  -18.8581 C   0  0  0  0  0  0  0  0  0  0  0  0
  -27.9961  -29.1089  -18.3805 C   0  0  0  0  0  0  0  0  0  0  0  0
  -27.1818  -28.3981  -19.2712 C   0  0  0  0  0  0  0  0  0  0  0  0
  -26.2473  -27.3384  -18.7579 C   0  0  0  0  0  0  0  0  0  0  0  0
  -20.1907  -24.1094  -19.1221 C   0  0  0  0  0  0  0  0  0  0  0  0
  -18.8312  -23.8723  -19.3390 C   0  0  0  0  0  0  0  0  0  0  0  0
  -18.4362  -22.8741  -20.2248 C   0  0  0  0  0  0  0  0  0  0  0  0
  -19.4095  -22.1166  -20.8527 C   0  0  0  0  0  0  0  0  0  0  0  0
  -20.7354  -22.4324  -20.6064 C   0  0  0  0  0  0  0  0  0  0  0  0
  -21.1488  -23.4011  -19.7679 N   0  0  0  0  0  0  0  0  0  0  0  0
  2  1  1  1
  2  3  1  0
  3  4  1  0
  4  5  2  0
  4  6  1  0
  7  6  1  1
  7  8  1  0
  8  9  1  0
  9 10  1  0
 10 11  2  0
 11 12  1  0
 12 13  2  0
 13 14  1  0
 14 15  2  0
 15 16  1  0
  2 17  1  0
 17 18  2  0
 18 19  1  0
 19 20  2  0
 20 21  1  0
 21 22  2  0
 16  7  1  0
 22 17  1  0
 15 10  1  0
M  END
>  <HIPPO Pose ID>  (32) 
94358

>  <fragmenstein_outcome>  (32) 
acceptable

>  <energy_score>  (32) 
-3.116882

>  <distance_score>  (32) 
0.813614

>  <fragmenstein_mode>  (32) 
expansion

>  <HIPPO Compound ID>  (32) 
34509

>  <name>  (32) 
GBVQXXZXPQRUPN-OCCSQVGLSA-N

>  <ref_pdb>  (32) 
z0364a

>  <ref_mols>  (32) 
z0364a,z0637a

>  <csv_name>  (32) 
RdRp_knitwork_green_site_rna_tunnel_pure_split4000_batch007.csv

>  <fragmenstein_runtime>  (32) 
9.061286

>  <tags>  (32) 
['Fragmenstein placed']

>  <original ID>  (32) 
GBVQXXZXPQRUPN-OCCSQVGLSA-N

>  <fragmenstein_error>  (32) 
None

>  <original SMILES>  (32) 
C[C@@H](NC(=O)N[C@@H]1CNc2ccccc2C1)c1ccccn1

>  <inchikey>  (32) 
GBVQXXZXPQRUPN-OCCSQVGLSA-N

>  <SLURM_JOB_NAME>  (32) 
BulkDock.place:Flavi_NS5_RdRp:RdRp_knitwork_green_site_rna_tunnel_pure_split4000_batch007

>  <scratch_subdir>  (32) 
/opt/xchem-fragalysis-2/maxwin/BulkDock/SCRATCH/217078/C34509-P118

>  <alias>  (32) 
None

>  <SLURM_JOB_ID>  (32) 
217078

>  <exports>  (32) 
['/opt/xchem-fragalysis-2/maxwin/BulkDock/OUTPUTS/RdRp_knitwork_green_site_rna_tunnel_pure_split4000_batch007_217078.sdf']

$$$$
94360
     RDKit          3D

 20 22  0  0  0  0  0  0  0  0999 V2000
  -29.4981  -31.2578  -14.5138 C   0  0  0  0  0  0  0  0  0  0  0  0
  -28.8779  -30.7480  -15.7888 C   0  0  0  0  0  0  0  0  0  0  0  0
  -29.7400  -30.2307  -16.7597 C   0  0  0  0  0  0  0  0  0  0  0  0
  -29.2500  -29.7928  -17.9749 C   0  0  0  0  0  0  0  0  0  0  0  0
  -27.8834  -29.8516  -18.2255 C   0  0  0  0  0  0  0  0  0  0  0  0
  -27.5182  -29.5171  -19.5286 N   0  0  0  0  0  0  0  0  0  0  0  0
  -26.3816  -30.0451  -20.4113 C   0  0  0  0  0  0  0  0  0  0  0  0
  -25.6135  -30.8988  -20.2223 O   0  0  0  0  0  0  0  0  0  0  0  0
  -26.3150  -29.3042  -21.6831 C   0  0  0  0  0  0  0  0  0  0  0  0
  -26.6062  -29.9999  -22.8510 C   0  0  0  0  0  0  0  0  0  0  0  0
  -26.2942  -29.3966  -24.0509 C   0  0  0  0  0  0  0  0  0  0  0  0
  -25.7344  -28.1727  -24.1259 N   0  0  0  0  0  0  0  0  0  0  0  0
  -25.4591  -27.5256  -22.9701 C   0  0  0  0  0  0  0  0  0  0  0  0
  -25.7474  -28.0353  -21.7207 C   0  0  0  0  0  0  0  0  0  0  0  0
  -26.9745  -30.2824  -17.2135 C   0  0  0  0  0  0  0  0  0  0  0  0
  -25.5629  -30.2321  -17.3075 C   0  0  0  0  0  0  0  0  0  0  0  0
  -24.7500  -30.6702  -16.2696 C   0  0  0  0  0  0  0  0  0  0  0  0
  -25.3642  -31.1361  -15.1327 C   0  0  0  0  0  0  0  0  0  0  0  0
  -26.7008  -31.1652  -14.9699 N   0  0  0  0  0  0  0  0  0  0  0  0
  -27.4939  -30.7439  -15.9791 C   0  0  0  0  0  0  0  0  0  0  0  0
  1  2  1  0
  2  3  2  0
  3  4  1  0
  4  5  2  0
  5  6  1  0
  6  7  1  0
  7  8  2  0
  7  9  1  0
  9 10  2  0
 10 11  1  0
 11 12  2  0
 12 13  1  0
 13 14  2  0
  5 15  1  0
 15 16  2  0
 16 17  1  0
 17 18  2  0
 18 19  1  0
 19 20  2  0
 20  2  1  0
 14  9  1  0
 20 15  1  0
M  END
>  <HIPPO Pose ID>  (33) 
94360

>  <fragmenstein_outcome>  (33) 
acceptable

>  <energy_score>  (33) 
-18.848466

>  <distance_score>  (33) 
0.788972

>  <fragmenstein_mode>  (33) 
expansion

>  <HIPPO Compound ID>  (33) 
28013

>  <name>  (33) 
IMMHZJLASOVDCS-UHFFFAOYSA-N

>  <ref_pdb>  (33) 
z0221a

>  <ref_mols>  (33) 
z0221a,z1040a

>  <csv_name>  (33) 
RdRp_knitwork_green_site_rna_tunnel_pure_split4000_batch003.csv

>  <fragmenstein_runtime>  (33) 
3.831657

>  <tags>  (33) 
['Fragmenstein placed']

>  <original ID>  (33) 
IMMHZJLASOVDCS-UHFFFAOYSA-N

>  <fragmenstein_error>  (33) 
None

>  <original SMILES>  (33) 
Cc1ccc(NC(=O)c2ccncc2)c2cccnc12

>  <inchikey>  (33) 
IMMHZJLASOVDCS-UHFFFAOYSA-N

>  <SLURM_JOB_NAME>  (33) 
BulkDock.place:Flavi_NS5_RdRp:RdRp_knitwork_green_site_rna_tunnel_pure_split4000_batch003

>  <scratch_subdir>  (33) 
/opt/xchem-fragalysis-2/maxwin/BulkDock/SCRATCH/217074/C28013-P105

>  <alias>  (33) 
None

>  <SLURM_JOB_ID>  (33) 
217074

>  <exports>  (33) 
['/opt/xchem-fragalysis-2/maxwin/BulkDock/OUTPUTS/RdRp_knitwork_green_site_rna_tunnel_pure_split4000_batch003_217074.sdf']

$$$$
94375
     RDKit          3D

 20 22  0  0  0  0  0  0  0  0999 V2000
  -25.6059  -30.8882  -20.2103 O   0  0  0  0  0  0  0  0  0  0  0  0
  -26.3699  -30.0305  -20.3965 C   0  0  0  0  0  0  0  0  0  0  0  0
  -27.4386  -29.4329  -19.4734 N   0  0  0  0  0  0  0  0  0  0  0  0
  -27.8474  -29.8130  -18.1966 C   0  0  0  0  0  0  0  0  0  0  0  0
  -29.2191  -29.7539  -17.9717 C   0  0  0  0  0  0  0  0  0  0  0  0
  -29.7301  -30.2057  -16.7702 C   0  0  0  0  0  0  0  0  0  0  0  0
  -28.8758  -30.7251  -15.8005 C   0  0  0  0  0  0  0  0  0  0  0  0
  -29.6300  -31.3315  -14.3587 Cl  0  0  0  0  0  0  0  0  0  0  0  0
  -27.4872  -30.7635  -15.9648 C   0  0  0  0  0  0  0  0  0  0  0  0
  -26.6962  -31.2297  -14.9663 N   0  0  0  0  0  0  0  0  0  0  0  0
  -25.3599  -31.2244  -15.1270 C   0  0  0  0  0  0  0  0  0  0  0  0
  -24.7378  -30.7399  -16.2512 C   0  0  0  0  0  0  0  0  0  0  0  0
  -25.5420  -30.2589  -17.2770 C   0  0  0  0  0  0  0  0  0  0  0  0
  -26.9545  -30.2842  -17.1853 C   0  0  0  0  0  0  0  0  0  0  0  0
  -26.3158  -29.3044  -21.6786 C   0  0  0  0  0  0  0  0  0  0  0  0
  -26.6133  -30.0108  -22.8384 C   0  0  0  0  0  0  0  0  0  0  0  0
  -26.3072  -29.4180  -24.0456 C   0  0  0  0  0  0  0  0  0  0  0  0
  -25.7465  -28.1954  -24.1357 N   0  0  0  0  0  0  0  0  0  0  0  0
  -25.4614  -27.5390  -22.9883 C   0  0  0  0  0  0  0  0  0  0  0  0
  -25.7449  -28.0365  -21.7329 C   0  0  0  0  0  0  0  0  0  0  0  0
  1  2  2  0
  2  3  1  0
  3  4  1  0
  4  5  2  0
  5  6  1  0
  6  7  2  0
  7  8  1  0
  7  9  1  0
  9 10  2  0
 10 11  1  0
 11 12  2  0
 12 13  1  0
 13 14  2  0
  2 15  1  0
 15 16  2  0
 16 17  1  0
 17 18  2  0
 18 19  1  0
 19 20  2  0
 14  4  1  0
 20 15  1  0
 14  9  1  0
M  END
>  <HIPPO Pose ID>  (34) 
94375

>  <fragmenstein_outcome>  (34) 
acceptable

>  <energy_score>  (34) 
-10.708304

>  <distance_score>  (34) 
0.805216

>  <fragmenstein_mode>  (34) 
expansion

>  <HIPPO Compound ID>  (34) 
29639

>  <name>  (34) 
YAOSTISNIUSXMX-UHFFFAOYSA-N

>  <ref_pdb>  (34) 
z0221a

>  <ref_mols>  (34) 
z0221a,z1040a

>  <csv_name>  (34) 
RdRp_knitwork_green_site_rna_tunnel_pure_split4000_batch003.csv

>  <fragmenstein_runtime>  (34) 
3.122275

>  <tags>  (34) 
['Fragmenstein placed']

>  <original ID>  (34) 
YAOSTISNIUSXMX-UHFFFAOYSA-N

>  <fragmenstein_error>  (34) 
None

>  <original SMILES>  (34) 
O=C(Nc1ccc(Cl)c2ncccc12)c1ccncc1

>  <inchikey>  (34) 
YAOSTISNIUSXMX-UHFFFAOYSA-N

>  <SLURM_JOB_NAME>  (34) 
BulkDock.place:Flavi_NS5_RdRp:RdRp_knitwork_green_site_rna_tunnel_pure_split4000_batch003

>  <scratch_subdir>  (34) 
/opt/xchem-fragalysis-2/maxwin/BulkDock/SCRATCH/217074/C29639-P105

>  <alias>  (34) 
None

>  <SLURM_JOB_ID>  (34) 
217074

>  <exports>  (34) 
['/opt/xchem-fragalysis-2/maxwin/BulkDock/OUTPUTS/RdRp_knitwork_green_site_rna_tunnel_pure_split4000_batch003_217074.sdf']

$$$$
94391
     RDKit          3D

 21 23  0  0  0  0  0  0  0  0999 V2000
  -29.1454  -32.4014  -14.1646 C   0  0  0  0  0  0  0  0  0  0  0  0
  -29.4832  -31.0771  -14.5758 O   0  0  0  0  0  0  0  0  0  0  0  0
  -28.8374  -30.6844  -15.7313 C   0  0  0  0  0  0  0  0  0  0  0  0
  -29.6936  -30.1419  -16.6880 C   0  0  0  0  0  0  0  0  0  0  0  0
  -29.1944  -29.7251  -17.9072 C   0  0  0  0  0  0  0  0  0  0  0  0
  -27.8291  -29.8197  -18.1594 C   0  0  0  0  0  0  0  0  0  0  0  0
  -27.4322  -29.4410  -19.4420 N   0  0  0  0  0  0  0  0  0  0  0  0
  -26.3879  -30.0544  -20.3845 C   0  0  0  0  0  0  0  0  0  0  0  0
  -25.6366  -30.9273  -20.2134 O   0  0  0  0  0  0  0  0  0  0  0  0
  -26.3299  -29.3178  -21.6613 C   0  0  0  0  0  0  0  0  0  0  0  0
  -26.6155  -30.0171  -22.8284 C   0  0  0  0  0  0  0  0  0  0  0  0
  -26.3017  -29.4159  -24.0298 C   0  0  0  0  0  0  0  0  0  0  0  0
  -25.7417  -28.1920  -24.1083 N   0  0  0  0  0  0  0  0  0  0  0  0
  -25.4696  -27.5415  -22.9542 C   0  0  0  0  0  0  0  0  0  0  0  0
  -25.7628  -28.0476  -21.7041 C   0  0  0  0  0  0  0  0  0  0  0  0
  -26.9291  -30.2968  -17.1588 C   0  0  0  0  0  0  0  0  0  0  0  0
  -25.5183  -30.2910  -17.2754 C   0  0  0  0  0  0  0  0  0  0  0  0
  -24.7021  -30.7586  -16.2539 C   0  0  0  0  0  0  0  0  0  0  0  0
  -25.3108  -31.2109  -15.1097 C   0  0  0  0  0  0  0  0  0  0  0  0
  -26.6447  -31.2027  -14.9279 N   0  0  0  0  0  0  0  0  0  0  0  0
  -27.4491  -30.7492  -15.9216 C   0  0  0  0  0  0  0  0  0  0  0  0
  1  2  1  0
  2  3  1  0
  3  4  2  0
  4  5  1  0
  5  6  2  0
  6  7  1  0
  7  8  1  0
  8  9  2  0
  8 10  1  0
 10 11  2  0
 11 12  1  0
 12 13  2  0
 13 14  1  0
 14 15  2  0
  6 16  1  0
 16 17  2  0
 17 18  1  0
 18 19  2  0
 19 20  1  0
 20 21  2  0
 21  3  1  0
 15 10  1  0
 21 16  1  0
M  END
>  <HIPPO Pose ID>  (35) 
94391

>  <fragmenstein_outcome>  (35) 
acceptable

>  <energy_score>  (35) 
-27.94404

>  <distance_score>  (35) 
0.833508

>  <fragmenstein_mode>  (35) 
expansion

>  <HIPPO Compound ID>  (35) 
29868

>  <name>  (35) 
NFWMWGWLCYLKNK-UHFFFAOYSA-N

>  <ref_pdb>  (35) 
z0221a

>  <ref_mols>  (35) 
z0221a,z1040a

>  <csv_name>  (35) 
RdRp_knitwork_green_site_rna_tunnel_pure_split4000_batch003.csv

>  <fragmenstein_runtime>  (35) 
4.651396

>  <tags>  (35) 
['Fragmenstein placed']

>  <original ID>  (35) 
NFWMWGWLCYLKNK-UHFFFAOYSA-N

>  <fragmenstein_error>  (35) 
None

>  <original SMILES>  (35) 
COc1ccc(NC(=O)c2ccncc2)c2cccnc12

>  <inchikey>  (35) 
NFWMWGWLCYLKNK-UHFFFAOYSA-N

>  <SLURM_JOB_NAME>  (35) 
BulkDock.place:Flavi_NS5_RdRp:RdRp_knitwork_green_site_rna_tunnel_pure_split4000_batch003

>  <scratch_subdir>  (35) 
/opt/xchem-fragalysis-2/maxwin/BulkDock/SCRATCH/217074/C29868-P105

>  <alias>  (35) 
None

>  <SLURM_JOB_ID>  (35) 
217074

>  <exports>  (35) 
['/opt/xchem-fragalysis-2/maxwin/BulkDock/OUTPUTS/RdRp_knitwork_green_site_rna_tunnel_pure_split4000_batch003_217074.sdf']

$$$$
94453
     RDKit          3D

 25 28  0  0  0  0  0  0  0  0999 V2000
  -25.6187  -30.9005  -20.2085 O   0  0  0  0  0  0  0  0  0  0  0  0
  -26.4032  -30.0496  -20.3449 C   0  0  0  0  0  0  0  0  0  0  0  0
  -27.4553  -29.4974  -19.3686 N   0  0  0  0  0  0  0  0  0  0  0  0
  -27.8187  -29.9248  -18.0891 C   0  0  0  0  0  0  0  0  0  0  0  0
  -29.1737  -29.9152  -17.7902 C   0  0  0  0  0  0  0  0  0  0  0  0
  -29.6177  -30.5358  -16.6281 C   0  0  0  0  0  0  0  0  0  0  0  0
  -28.7314  -31.1822  -15.7463 C   0  0  0  0  0  0  0  0  0  0  0  0
  -29.2530  -31.9205  -14.6696 N   0  0  0  0  0  0  0  0  0  0  0  0
  -30.4819  -31.5332  -13.9879 C   0  0  0  0  0  0  0  0  0  0  0  0
  -30.5215  -32.1584  -12.5951 C   0  0  0  0  0  0  0  0  0  0  0  0
  -30.4984  -33.6834  -12.6635 C   0  0  0  0  0  0  0  0  0  0  0  0
  -29.7100  -34.1995  -13.8678 C   0  0  0  0  0  0  0  0  0  0  0  0
  -28.6368  -33.2093  -14.3255 C   0  0  0  0  0  0  0  0  0  0  0  0
  -27.3344  -31.0830  -15.9828 C   0  0  0  0  0  0  0  0  0  0  0  0
  -26.4535  -31.5800  -15.0727 N   0  0  0  0  0  0  0  0  0  0  0  0
  -25.1301  -31.4473  -15.2710 C   0  0  0  0  0  0  0  0  0  0  0  0
  -24.5945  -30.8049  -16.3559 C   0  0  0  0  0  0  0  0  0  0  0  0
  -25.4754  -30.2928  -17.2959 C   0  0  0  0  0  0  0  0  0  0  0  0
  -26.8764  -30.4376  -17.1568 C   0  0  0  0  0  0  0  0  0  0  0  0
  -26.3703  -29.2953  -21.6110 C   0  0  0  0  0  0  0  0  0  0  0  0
  -26.6461  -29.9903  -22.7848 C   0  0  0  0  0  0  0  0  0  0  0  0
  -26.3102  -29.3910  -23.9816 C   0  0  0  0  0  0  0  0  0  0  0  0
  -25.7391  -28.1716  -24.0515 N   0  0  0  0  0  0  0  0  0  0  0  0
  -25.4806  -27.5242  -22.8919 C   0  0  0  0  0  0  0  0  0  0  0  0
  -25.7922  -28.0303  -21.6455 C   0  0  0  0  0  0  0  0  0  0  0  0
  1  2  2  0
  2  3  1  0
  3  4  1  0
  4  5  2  0
  5  6  1  0
  6  7  2  0
  7  8  1  0
  8  9  1  0
  9 10  1  0
 10 11  1  0
 11 12  1  0
 12 13  1  0
  7 14  1  0
 14 15  2  0
 15 16  1  0
 16 17  2  0
 17 18  1  0
 18 19  2  0
  2 20  1  0
 20 21  2  0
 21 22  1  0
 22 23  2  0
 23 24  1  0
 24 25  2  0
 19  4  1  0
 25 20  1  0
 13  8  1  0
 19 14  1  0
M  END
>  <HIPPO Pose ID>  (36) 
94453

>  <fragmenstein_outcome>  (36) 
acceptable

>  <energy_score>  (36) 
-13.058939

>  <distance_score>  (36) 
0.898289

>  <fragmenstein_mode>  (36) 
expansion

>  <HIPPO Compound ID>  (36) 
31603

>  <name>  (36) 
SMFBDVYXDGZYTE-UHFFFAOYSA-N

>  <ref_pdb>  (36) 
z0221a

>  <ref_mols>  (36) 
z0221a,z1040a

>  <csv_name>  (36) 
RdRp_knitwork_green_site_rna_tunnel_pure_split4000_batch003.csv

>  <fragmenstein_runtime>  (36) 
3.719049

>  <tags>  (36) 
['Fragmenstein placed']

>  <original ID>  (36) 
SMFBDVYXDGZYTE-UHFFFAOYSA-N

>  <fragmenstein_error>  (36) 
None

>  <original SMILES>  (36) 
O=C(Nc1ccc(N2CCCCC2)c2ncccc12)c1ccncc1

>  <inchikey>  (36) 
SMFBDVYXDGZYTE-UHFFFAOYSA-N

>  <SLURM_JOB_NAME>  (36) 
BulkDock.place:Flavi_NS5_RdRp:RdRp_knitwork_green_site_rna_tunnel_pure_split4000_batch003

>  <scratch_subdir>  (36) 
/opt/xchem-fragalysis-2/maxwin/BulkDock/SCRATCH/217074/C31603-P105

>  <alias>  (36) 
None

>  <SLURM_JOB_ID>  (36) 
217074

>  <exports>  (36) 
['/opt/xchem-fragalysis-2/maxwin/BulkDock/OUTPUTS/RdRp_knitwork_green_site_rna_tunnel_pure_split4000_batch003_217074.sdf']

$$$$
94487
     RDKit          3D

 17 18  0  0  0  0  0  0  0  0999 V2000
  -21.2467  -32.8375  -24.1264 C   0  0  0  0  0  0  0  0  0  0  0  0
  -22.0569  -32.0279  -23.1316 C   0  0  2  0  0  0  0  0  0  0  0  0
  -21.2808  -31.8478  -21.9444 O   0  0  0  0  0  0  0  0  0  0  0  0
  -23.3538  -32.7588  -22.8022 C   0  0  0  0  0  0  0  0  0  0  0  0
  -24.1981  -32.0254  -21.8951 N   0  0  0  0  0  0  0  0  0  0  0  0
  -25.3403  -31.0100  -22.1810 C   0  0  0  0  0  0  0  0  0  0  0  0
  -25.7059  -30.5694  -23.1695 O   0  0  0  0  0  0  0  0  0  0  0  0
  -25.9043  -30.8501  -20.7388 N   0  0  0  0  0  0  0  0  0  0  0  0
  -27.0400  -30.2128  -20.2910 C   0  0  0  0  0  0  0  0  0  0  0  0
  -27.9437  -29.6481  -21.1653 C   0  0  0  0  0  0  0  0  0  0  0  0
  -29.2015  -29.3208  -20.6824 C   0  0  0  0  0  0  0  0  0  0  0  0
  -29.4847  -29.5157  -19.3367 C   0  0  0  0  0  0  0  0  0  0  0  0
  -28.4898  -29.9708  -18.4857 C   0  0  0  0  0  0  0  0  0  0  0  0
  -28.7578  -30.1751  -17.0219 C   0  0  0  0  0  0  0  0  0  0  0  0
  -27.5587  -29.9843  -16.0936 C   0  0  0  0  0  0  0  0  0  0  0  0
  -28.7695  -29.1303  -15.9685 C   0  0  0  0  0  0  0  0  0  0  0  0
  -27.2793  -30.3434  -18.9735 N   0  0  0  0  0  0  0  0  0  0  0  0
  2  1  1  6
  2  3  1  0
  2  4  1  0
  4  5  1  0
  5  6  1  0
  6  7  2  0
  6  8  1  0
  8  9  1  0
  9 10  2  0
 10 11  1  0
 11 12  2  0
 12 13  1  0
 13 14  1  0
 14 15  1  0
 15 16  1  0
 13 17  2  0
 17  9  1  0
 16 14  1  0
M  END
>  <HIPPO Pose ID>  (37) 
94487

>  <fragmenstein_outcome>  (37) 
acceptable

>  <energy_score>  (37) 
-8.114625

>  <distance_score>  (37) 
0.954559

>  <fragmenstein_mode>  (37) 
expansion

>  <HIPPO Compound ID>  (37) 
45268

>  <name>  (37) 
TVYONTJMTVLWBP-QMMMGPOBSA-N

>  <ref_pdb>  (37) 
z0637a

>  <ref_mols>  (37) 
z0211a,z0637a

>  <csv_name>  (37) 
RdRp_knitwork_green_site_rna_tunnel_pure_split4000_batch008.csv

>  <fragmenstein_runtime>  (37) 
5.291258

>  <tags>  (37) 
['Fragmenstein placed']

>  <original ID>  (37) 
TVYONTJMTVLWBP-QMMMGPOBSA-N

>  <fragmenstein_error>  (37) 
None

>  <original SMILES>  (37) 
C[C@H](O)CNC(=O)Nc1cccc(C2CC2)n1

>  <inchikey>  (37) 
TVYONTJMTVLWBP-QMMMGPOBSA-N

>  <SLURM_JOB_NAME>  (37) 
BulkDock.place:Flavi_NS5_RdRp:RdRp_knitwork_green_site_rna_tunnel_pure_split4000_batch008

>  <scratch_subdir>  (37) 
/opt/xchem-fragalysis-2/maxwin/BulkDock/SCRATCH/217079/C45268-P151

>  <alias>  (37) 
None

>  <SLURM_JOB_ID>  (37) 
217079

>  <exports>  (37) 
['/opt/xchem-fragalysis-2/maxwin/BulkDock/OUTPUTS/RdRp_knitwork_green_site_rna_tunnel_pure_split4000_batch008_217079.sdf']

$$$$
94493
     RDKit          3D

 16 16  0  0  0  0  0  0  0  0999 V2000
  -26.0507  -29.9330  -16.3136 C   0  0  0  0  0  0  0  0  0  0  0  0
  -25.8937  -30.1457  -17.8123 C   0  0  0  0  0  0  0  0  0  0  0  0
  -27.1579  -30.1172  -18.6404 C   0  0  0  0  0  0  0  0  0  0  0  0
  -28.4214  -29.8946  -18.0711 C   0  0  0  0  0  0  0  0  0  0  0  0
  -29.5514  -29.9210  -18.8763 C   0  0  0  0  0  0  0  0  0  0  0  0
  -29.5162  -30.0565  -20.2104 N   0  0  0  0  0  0  0  0  0  0  0  0
  -28.2926  -30.2311  -20.7532 C   0  0  0  0  0  0  0  0  0  0  0  0
  -27.1077  -30.3272  -20.0234 C   0  0  0  0  0  0  0  0  0  0  0  0
  -25.9342  -30.6914  -20.6810 N   0  0  0  0  0  0  0  0  0  0  0  0
  -25.6283  -30.8127  -22.2017 C   0  0  0  0  0  0  0  0  0  0  0  0
  -26.2737  -30.5577  -23.1032 O   0  0  0  0  0  0  0  0  0  0  0  0
  -24.2316  -31.4755  -22.1274 N   0  0  0  0  0  0  0  0  0  0  0  0
  -23.4106  -32.0352  -23.1662 C   0  0  0  0  0  0  0  0  0  0  0  0
  -22.0187  -32.4354  -22.6883 C   0  0  1  0  0  0  0  0  0  0  0  0
  -21.1737  -32.9331  -23.8471 C   0  0  0  0  0  0  0  0  0  0  0  0
  -21.3414  -31.3443  -22.0748 O   0  0  0  0  0  0  0  0  0  0  0  0
  1  2  1  0
  2  3  1  0
  3  4  2  0
  4  5  1  0
  5  6  2  0
  6  7  1  0
  7  8  2  0
  8  9  1  0
  9 10  1  0
 10 11  2  0
 10 12  1  0
 12 13  1  0
 13 14  1  0
 14 15  1  6
 14 16  1  0
  8  3  1  0
M  END
>  <HIPPO Pose ID>  (38) 
94493

>  <fragmenstein_outcome>  (38) 
acceptable

>  <energy_score>  (38) 
-3.515473

>  <distance_score>  (38) 
0.648311

>  <fragmenstein_mode>  (38) 
expansion

>  <HIPPO Compound ID>  (38) 
45288

>  <name>  (38) 
QTWDIBPWZNXIDX-MRVPVSSYSA-N

>  <ref_pdb>  (38) 
z0211a

>  <ref_mols>  (38) 
z0211a,z0637a

>  <csv_name>  (38) 
RdRp_knitwork_green_site_rna_tunnel_pure_split4000_batch008.csv

>  <fragmenstein_runtime>  (38) 
2.769592

>  <tags>  (38) 
['Fragmenstein placed']

>  <original ID>  (38) 
QTWDIBPWZNXIDX-MRVPVSSYSA-N

>  <fragmenstein_error>  (38) 
None

>  <original SMILES>  (38) 
CCc1ccncc1NC(=O)NC[C@@H](C)O

>  <inchikey>  (38) 
QTWDIBPWZNXIDX-MRVPVSSYSA-N

>  <SLURM_JOB_NAME>  (38) 
BulkDock.place:Flavi_NS5_RdRp:RdRp_knitwork_green_site_rna_tunnel_pure_split4000_batch008

>  <scratch_subdir>  (38) 
/opt/xchem-fragalysis-2/maxwin/BulkDock/SCRATCH/217079/C45288-P102

>  <alias>  (38) 
None

>  <SLURM_JOB_ID>  (38) 
217079

>  <exports>  (38) 
['/opt/xchem-fragalysis-2/maxwin/BulkDock/OUTPUTS/RdRp_knitwork_green_site_rna_tunnel_pure_split4000_batch008_217079.sdf']

$$$$
94501
     RDKit          3D

 16 16  0  0  0  0  0  0  0  0999 V2000
  -25.8721  -30.0268  -16.5793 C   0  0  0  0  0  0  0  0  0  0  0  0
  -25.8940  -30.5681  -17.9989 C   0  0  0  0  0  0  0  0  0  0  0  0
  -27.0618  -30.1667  -18.8736 C   0  0  0  0  0  0  0  0  0  0  0  0
  -28.3199  -29.8746  -18.3306 C   0  0  0  0  0  0  0  0  0  0  0  0
  -29.3706  -29.5667  -19.1804 C   0  0  0  0  0  0  0  0  0  0  0  0
  -29.2471  -29.4499  -20.5146 N   0  0  0  0  0  0  0  0  0  0  0  0
  -28.0299  -29.7296  -21.0279 C   0  0  0  0  0  0  0  0  0  0  0  0
  -26.9424  -30.1533  -20.2743 C   0  0  0  0  0  0  0  0  0  0  0  0
  -25.8152  -30.6924  -20.8913 N   0  0  0  0  0  0  0  0  0  0  0  0
  -25.4013  -30.7154  -22.3932 C   0  0  0  0  0  0  0  0  0  0  0  0
  -25.8943  -30.2300  -23.3023 O   0  0  0  0  0  0  0  0  0  0  0  0
  -24.1844  -31.6732  -22.3046 N   0  0  0  0  0  0  0  0  0  0  0  0
  -23.4052  -32.2860  -23.3441 C   0  0  0  0  0  0  0  0  0  0  0  0
  -21.9981  -32.6272  -22.8585 C   0  0  1  0  0  0  0  0  0  0  0  0
  -21.1042  -33.0117  -24.0212 C   0  0  0  0  0  0  0  0  0  0  0  0
  -21.4020  -31.5418  -22.1504 O   0  0  0  0  0  0  0  0  0  0  0  0
  1  2  1  0
  2  3  1  0
  3  4  2  0
  4  5  1  0
  5  6  2  0
  6  7  1  0
  7  8  2  0
  8  9  1  0
  9 10  1  0
 10 11  2  0
 10 12  1  0
 12 13  1  0
 13 14  1  0
 14 15  1  6
 14 16  1  0
  8  3  1  0
M  END
>  <HIPPO Pose ID>  (39) 
94501

>  <fragmenstein_outcome>  (39) 
acceptable

>  <energy_score>  (39) 
-2.811418

>  <distance_score>  (39) 
0.899846

>  <fragmenstein_mode>  (39) 
expansion

>  <HIPPO Compound ID>  (39) 
45288

>  <name>  (39) 
QTWDIBPWZNXIDX-MRVPVSSYSA-N

>  <ref_pdb>  (39) 
z0637a

>  <ref_mols>  (39) 
z0211a,z0637a

>  <csv_name>  (39) 
RdRp_knitwork_green_site_rna_tunnel_pure_split4000_batch008.csv

>  <fragmenstein_runtime>  (39) 
3.85941

>  <tags>  (39) 
['Fragmenstein placed']

>  <original ID>  (39) 
QTWDIBPWZNXIDX-MRVPVSSYSA-N

>  <fragmenstein_error>  (39) 
None

>  <original SMILES>  (39) 
CCc1ccncc1NC(=O)NC[C@@H](C)O

>  <inchikey>  (39) 
QTWDIBPWZNXIDX-MRVPVSSYSA-N

>  <SLURM_JOB_NAME>  (39) 
BulkDock.place:Flavi_NS5_RdRp:RdRp_knitwork_green_site_rna_tunnel_pure_split4000_batch008

>  <scratch_subdir>  (39) 
/opt/xchem-fragalysis-2/maxwin/BulkDock/SCRATCH/217079/C45288-P151

>  <alias>  (39) 
None

>  <SLURM_JOB_ID>  (39) 
217079

>  <exports>  (39) 
['/opt/xchem-fragalysis-2/maxwin/BulkDock/OUTPUTS/RdRp_knitwork_green_site_rna_tunnel_pure_split4000_batch008_217079.sdf']

$$$$
94510
     RDKit          3D

 25 27  0  0  0  0  0  0  0  0999 V2000
  -20.0597  -24.2835  -19.3225 C   0  0  0  0  0  0  0  0  0  0  0  0
  -20.9155  -25.1741  -18.4329 C   0  0  1  0  0  0  0  0  0  0  0  0
  -21.0430  -24.7110  -16.9842 C   0  0  0  0  0  0  0  0  0  0  0  0
  -19.8042  -24.9152  -16.0945 C   0  0  0  0  0  0  0  0  0  0  0  0
  -20.0421  -24.4474  -14.6437 C   0  0  0  0  0  0  0  0  0  0  0  0
  -20.3255  -25.5600  -13.6705 C   0  0  0  0  0  0  0  0  0  0  0  0
  -19.3183  -26.4491  -13.2858 C   0  0  0  0  0  0  0  0  0  0  0  0
  -19.5939  -27.4508  -12.3619 C   0  0  0  0  0  0  0  0  0  0  0  0
  -20.8869  -27.5479  -11.8686 C   0  0  0  0  0  0  0  0  0  0  0  0
  -21.9027  -26.7404  -12.2418 N   0  0  0  0  0  0  0  0  0  0  0  0
  -21.5862  -25.7407  -13.1014 C   0  0  0  0  0  0  0  0  0  0  0  0
  -22.2089  -25.3255  -19.0447 N   0  0  0  0  0  0  0  0  0  0  0  0
  -22.9180  -26.5861  -19.5837 C   0  0  0  0  0  0  0  0  0  0  0  0
  -22.5428  -27.6530  -19.6828 O   0  0  0  0  0  0  0  0  0  0  0  0
  -24.3106  -25.9942  -19.8511 N   0  0  0  0  0  0  0  0  0  0  0  0
  -25.5472  -26.6419  -20.2082 C   0  0  1  0  0  0  0  0  0  0  0  0
  -25.4106  -27.3810  -21.5340 C   0  0  0  0  0  0  0  0  0  0  0  0
  -26.5620  -28.2092  -21.8444 N   0  0  0  0  0  0  0  0  0  0  0  0
  -27.2067  -28.8916  -20.8146 C   0  0  0  0  0  0  0  0  0  0  0  0
  -28.1800  -29.8413  -21.1393 C   0  0  0  0  0  0  0  0  0  0  0  0
  -28.8885  -30.5188  -20.1460 C   0  0  0  0  0  0  0  0  0  0  0  0
  -28.6529  -30.2308  -18.8060 C   0  0  0  0  0  0  0  0  0  0  0  0
  -27.7178  -29.2577  -18.4679 C   0  0  0  0  0  0  0  0  0  0  0  0
  -27.0056  -28.5743  -19.4658 C   0  0  0  0  0  0  0  0  0  0  0  0
  -25.9427  -27.5947  -19.0753 C   0  0  0  0  0  0  0  0  0  0  0  0
  2  1  1  6
  2  3  1  0
  3  4  1  0
  4  5  1  0
  5  6  1  0
  6  7  2  0
  7  8  1  0
  8  9  2  0
  9 10  1  0
 10 11  2  0
  2 12  1  0
 12 13  1  0
 13 14  2  0
 13 15  1  0
 16 15  1  1
 16 17  1  0
 17 18  1  0
 18 19  1  0
 19 20  2  0
 20 21  1  0
 21 22  2  0
 22 23  1  0
 23 24  2  0
 24 25  1  0
 11  6  1  0
 25 16  1  0
 24 19  1  0
M  END
>  <HIPPO Pose ID>  (40) 
94510

>  <fragmenstein_outcome>  (40) 
acceptable

>  <energy_score>  (40) 
-8.45683

>  <distance_score>  (40) 
0.847156

>  <fragmenstein_mode>  (40) 
expansion

>  <HIPPO Compound ID>  (40) 
34626

>  <name>  (40) 
LMXZPQSQSJQRKZ-MAUKXSAKSA-N

>  <ref_pdb>  (40) 
z0364a

>  <ref_mols>  (40) 
z0364a,z0637a

>  <csv_name>  (40) 
RdRp_knitwork_green_site_rna_tunnel_pure_split4000_batch007.csv

>  <fragmenstein_runtime>  (40) 
11.511334

>  <tags>  (40) 
['Fragmenstein placed']

>  <original ID>  (40) 
LMXZPQSQSJQRKZ-MAUKXSAKSA-N

>  <fragmenstein_error>  (40) 
None

>  <original SMILES>  (40) 
C[C@@H](CCCc1cccnc1)NC(=O)N[C@H]1CNc2ccccc2C1

>  <inchikey>  (40) 
LMXZPQSQSJQRKZ-MAUKXSAKSA-N

>  <SLURM_JOB_NAME>  (40) 
BulkDock.place:Flavi_NS5_RdRp:RdRp_knitwork_green_site_rna_tunnel_pure_split4000_batch007

>  <scratch_subdir>  (40) 
/opt/xchem-fragalysis-2/maxwin/BulkDock/SCRATCH/217078/C34626-P118

>  <alias>  (40) 
None

>  <SLURM_JOB_ID>  (40) 
217078

>  <exports>  (40) 
['/opt/xchem-fragalysis-2/maxwin/BulkDock/OUTPUTS/RdRp_knitwork_green_site_rna_tunnel_pure_split4000_batch007_217078.sdf']

$$$$
94531
     RDKit          3D

 22 24  0  0  0  0  0  0  0  0999 V2000
  -22.0814  -27.3081  -20.0531 O   0  0  0  0  0  0  0  0  0  0  0  0
  -22.5173  -26.4265  -19.4181 C   0  0  0  0  0  0  0  0  0  0  0  0
  -21.6382  -25.5654  -18.5100 C   0  0  0  0  0  0  0  0  0  0  0  0
  -21.5728  -23.8549  -19.0135 S   0  0  0  0  0  0  0  0  0  0  0  0
  -20.3337  -23.8747  -20.2835 C   0  0  0  0  0  0  0  0  0  0  0  0
  -19.0509  -23.1156  -20.0803 C   0  0  0  0  0  0  0  0  0  0  0  0
  -18.8579  -21.8736  -20.6859 C   0  0  0  0  0  0  0  0  0  0  0  0
  -17.6133  -21.2568  -20.5863 C   0  0  0  0  0  0  0  0  0  0  0  0
  -16.5979  -21.8749  -19.8728 C   0  0  0  0  0  0  0  0  0  0  0  0
  -16.8714  -23.0970  -19.2898 C   0  0  0  0  0  0  0  0  0  0  0  0
  -18.0655  -23.7341  -19.3847 N   0  0  0  0  0  0  0  0  0  0  0  0
  -23.9874  -25.9554  -19.2233 N   0  0  0  0  0  0  0  0  0  0  0  0
  -25.2397  -26.5365  -19.6980 C   0  0  1  0  0  0  0  0  0  0  0  0
  -25.1480  -27.0587  -21.1383 C   0  0  0  0  0  0  0  0  0  0  0  0
  -26.3401  -27.7800  -21.5725 N   0  0  0  0  0  0  0  0  0  0  0  0
  -27.0418  -28.5642  -20.6581 C   0  0  0  0  0  0  0  0  0  0  0  0
  -28.0912  -29.3731  -21.1079 C   0  0  0  0  0  0  0  0  0  0  0  0
  -28.8678  -30.1103  -20.2115 C   0  0  0  0  0  0  0  0  0  0  0  0
  -28.6132  -30.0378  -18.8465 C   0  0  0  0  0  0  0  0  0  0  0  0
  -27.5858  -29.2232  -18.3799 C   0  0  0  0  0  0  0  0  0  0  0  0
  -26.8127  -28.4734  -19.2797 C   0  0  0  0  0  0  0  0  0  0  0  0
  -25.6436  -27.6820  -18.7757 C   0  0  0  0  0  0  0  0  0  0  0  0
  1  2  2  0
  2  3  1  0
  3  4  1  0
  4  5  1  0
  5  6  1  0
  6  7  2  0
  7  8  1  0
  8  9  2  0
  9 10  1  0
 10 11  2  0
  2 12  1  0
 13 12  1  1
 13 14  1  0
 14 15  1  0
 15 16  1  0
 16 17  2  0
 17 18  1  0
 18 19  2  0
 19 20  1  0
 20 21  2  0
 21 22  1  0
 11  6  1  0
 22 13  1  0
 21 16  1  0
M  END
>  <HIPPO Pose ID>  (41) 
94531

>  <fragmenstein_outcome>  (41) 
acceptable

>  <energy_score>  (41) 
-14.629951

>  <distance_score>  (41) 
0.769941

>  <fragmenstein_mode>  (41) 
expansion

>  <HIPPO Compound ID>  (41) 
34717

>  <name>  (41) 
WBVRJIOZKFMTSS-OAHLLOKOSA-N

>  <ref_pdb>  (41) 
z0364a

>  <ref_mols>  (41) 
z0364a,z0637a

>  <csv_name>  (41) 
RdRp_knitwork_green_site_rna_tunnel_pure_split4000_batch007.csv

>  <fragmenstein_runtime>  (41) 
8.756111

>  <tags>  (41) 
['Fragmenstein placed']

>  <original ID>  (41) 
WBVRJIOZKFMTSS-OAHLLOKOSA-N

>  <fragmenstein_error>  (41) 
None

>  <original SMILES>  (41) 
O=C(CSCc1ccccn1)N[C@H]1CNc2ccccc2C1

>  <inchikey>  (41) 
WBVRJIOZKFMTSS-OAHLLOKOSA-N

>  <SLURM_JOB_NAME>  (41) 
BulkDock.place:Flavi_NS5_RdRp:RdRp_knitwork_green_site_rna_tunnel_pure_split4000_batch007

>  <scratch_subdir>  (41) 
/opt/xchem-fragalysis-2/maxwin/BulkDock/SCRATCH/217078/C34717-P118

>  <alias>  (41) 
None

>  <SLURM_JOB_ID>  (41) 
217078

>  <exports>  (41) 
['/opt/xchem-fragalysis-2/maxwin/BulkDock/OUTPUTS/RdRp_knitwork_green_site_rna_tunnel_pure_split4000_batch007_217078.sdf']

$$$$
94533
     RDKit          3D

 19 20  0  0  0  0  0  0  0  0999 V2000
  -21.5149  -33.1629  -23.7227 C   0  0  0  0  0  0  0  0  0  0  0  0
  -22.2858  -32.1989  -22.8393 C   0  0  2  0  0  0  0  0  0  0  0  0
  -21.3319  -31.3067  -22.2666 O   0  0  0  0  0  0  0  0  0  0  0  0
  -23.0169  -32.9359  -21.7110 C   0  0  0  0  0  0  0  0  0  0  0  0
  -23.9998  -32.1149  -21.0381 N   0  0  0  0  0  0  0  0  0  0  0  0
  -25.2240  -31.3457  -21.6038 C   0  0  0  0  0  0  0  0  0  0  0  0
  -25.5686  -31.2005  -22.6801 O   0  0  0  0  0  0  0  0  0  0  0  0
  -25.8982  -30.9187  -20.2650 N   0  0  0  0  0  0  0  0  0  0  0  0
  -27.1438  -30.3289  -20.0265 C   0  0  0  0  0  0  0  0  0  0  0  0
  -28.0095  -30.1012  -21.0974 C   0  0  0  0  0  0  0  0  0  0  0  0
  -29.3391  -29.7939  -20.8561 C   0  0  0  0  0  0  0  0  0  0  0  0
  -29.7679  -29.7889  -19.5557 C   0  0  0  0  0  0  0  0  0  0  0  0
  -28.9362  -29.8693  -18.5083 N   0  0  0  0  0  0  0  0  0  0  0  0
  -27.6152  -30.0918  -18.7242 C   0  0  0  0  0  0  0  0  0  0  0  0
  -26.8436  -30.2115  -17.5853 N   0  0  0  0  0  0  0  0  0  0  0  0
  -27.5784  -29.9946  -16.3325 C   0  0  0  0  0  0  0  0  0  0  0  0
  -26.5151  -30.2318  -15.2785 C   0  0  0  0  0  0  0  0  0  0  0  0
  -25.1861  -30.0717  -16.0088 C   0  0  0  0  0  0  0  0  0  0  0  0
  -25.5432  -29.5977  -17.4157 C   0  0  0  0  0  0  0  0  0  0  0  0
  2  1  1  6
  2  3  1  0
  2  4  1  0
  4  5  1  0
  5  6  1  0
  6  7  2  0
  6  8  1  0
  8  9  1  0
  9 10  2  0
 10 11  1  0
 11 12  2  0
 12 13  1  0
 13 14  2  0
 14 15  1  0
 15 16  1  0
 16 17  1  0
 17 18  1  0
 18 19  1  0
 14  9  1  0
 19 15  1  0
M  END
>  <HIPPO Pose ID>  (42) 
94533

>  <fragmenstein_outcome>  (42) 
acceptable

>  <energy_score>  (42) 
-45.726681

>  <distance_score>  (42) 
0.976322

>  <fragmenstein_mode>  (42) 
expansion

>  <HIPPO Compound ID>  (42) 
45327

>  <name>  (42) 
MERWPLCUOCXLGQ-JTQLQIEISA-N

>  <ref_pdb>  (42) 
z0211a

>  <ref_mols>  (42) 
z0211a,z0637a

>  <csv_name>  (42) 
RdRp_knitwork_green_site_rna_tunnel_pure_split4000_batch008.csv

>  <fragmenstein_runtime>  (42) 
6.138051

>  <tags>  (42) 
['Fragmenstein placed']

>  <original ID>  (42) 
MERWPLCUOCXLGQ-JTQLQIEISA-N

>  <fragmenstein_error>  (42) 
None

>  <original SMILES>  (42) 
C[C@H](O)CNC(=O)Nc1cccnc1N1CCCC1

>  <inchikey>  (42) 
MERWPLCUOCXLGQ-JTQLQIEISA-N

>  <SLURM_JOB_NAME>  (42) 
BulkDock.place:Flavi_NS5_RdRp:RdRp_knitwork_green_site_rna_tunnel_pure_split4000_batch008

>  <scratch_subdir>  (42) 
/opt/xchem-fragalysis-2/maxwin/BulkDock/SCRATCH/217079/C45327-P102

>  <alias>  (42) 
None

>  <SLURM_JOB_ID>  (42) 
217079

>  <exports>  (42) 
['/opt/xchem-fragalysis-2/maxwin/BulkDock/OUTPUTS/RdRp_knitwork_green_site_rna_tunnel_pure_split4000_batch008_217079.sdf']

$$$$
94595
     RDKit          3D

 25 28  0  0  0  0  0  0  0  0999 V2000
  -21.4952  -26.8607  -20.1942 O   0  0  0  0  0  0  0  0  0  0  0  0
  -22.1196  -26.1445  -19.5204 C   0  0  0  0  0  0  0  0  0  0  0  0
  -23.6190  -26.1337  -19.2041 N   0  0  0  0  0  0  0  0  0  0  0  0
  -24.6663  -27.0644  -19.5751 C   0  0  2  0  0  0  0  0  0  0  0  0
  -25.1293  -26.8600  -21.0221 C   0  0  0  0  0  0  0  0  0  0  0  0
  -26.0110  -27.9350  -21.4447 N   0  0  0  0  0  0  0  0  0  0  0  0
  -26.9324  -28.4567  -20.5434 C   0  0  0  0  0  0  0  0  0  0  0  0
  -27.8399  -29.4276  -20.9859 C   0  0  0  0  0  0  0  0  0  0  0  0
  -28.6719  -30.0953  -20.0873 C   0  0  0  0  0  0  0  0  0  0  0  0
  -28.5869  -29.8169  -18.7273 C   0  0  0  0  0  0  0  0  0  0  0  0
  -27.6822  -28.8601  -18.2674 C   0  0  0  0  0  0  0  0  0  0  0  0
  -26.8518  -28.1742  -19.1659 C   0  0  0  0  0  0  0  0  0  0  0  0
  -25.8817  -27.1217  -18.6646 C   0  0  0  0  0  0  0  0  0  0  0  0
  -21.3183  -25.1019  -18.8056 C   0  0  0  0  0  0  0  0  0  0  0  0
  -20.2171  -24.5694  -19.4591 C   0  0  0  0  0  0  0  0  0  0  0  0
  -19.1078  -24.3012  -18.6927 C   0  0  0  0  0  0  0  0  0  0  0  0
  -19.0453  -24.5385  -17.3627 N   0  0  0  0  0  0  0  0  0  0  0  0
  -20.1745  -24.8789  -16.7023 C   0  0  0  0  0  0  0  0  0  0  0  0
  -20.1137  -25.1453  -15.3228 N   0  0  0  0  0  0  0  0  0  0  0  0
  -18.7462  -25.0441  -14.7642 C   0  0  0  0  0  0  0  0  0  0  0  0
  -18.7193  -25.5267  -13.2933 C   0  0  0  0  0  0  0  0  0  0  0  0
  -19.7044  -24.8489  -12.4247 N   0  0  0  0  0  0  0  0  0  0  0  0
  -21.0415  -25.0080  -13.0228 C   0  0  0  0  0  0  0  0  0  0  0  0
  -21.1180  -24.4912  -14.4732 C   0  0  0  0  0  0  0  0  0  0  0  0
  -21.3540  -25.0818  -17.4188 C   0  0  0  0  0  0  0  0  0  0  0  0
  1  2  2  0
  2  3  1  0
  4  3  1  1
  4  5  1  0
  5  6  1  0
  6  7  1  0
  7  8  2  0
  8  9  1  0
  9 10  2  0
 10 11  1  0
 11 12  2  0
 12 13  1  0
  2 14  1  0
 14 15  2  0
 15 16  1  0
 16 17  2  0
 17 18  1  0
 18 19  1  0
 19 20  1  0
 20 21  1  0
 21 22  1  0
 22 23  1  0
 23 24  1  0
 18 25  2  0
 13  4  1  0
 25 14  1  0
 12  7  1  0
 24 19  1  0
M  END
>  <HIPPO Pose ID>  (43) 
94595

>  <fragmenstein_outcome>  (43) 
acceptable

>  <energy_score>  (43) 
-4.788121

>  <distance_score>  (43) 
0.787257

>  <fragmenstein_mode>  (43) 
expansion

>  <HIPPO Compound ID>  (43) 
35691

>  <name>  (43) 
MGIPNSPTORMJKK-INIZCTEOSA-N

>  <ref_pdb>  (43) 
z0364a

>  <ref_mols>  (43) 
z0364a,z0637a

>  <csv_name>  (43) 
RdRp_knitwork_green_site_rna_tunnel_pure_split4000_batch007.csv

>  <fragmenstein_runtime>  (43) 
20.611602

>  <tags>  (43) 
['Fragmenstein placed']

>  <original ID>  (43) 
MGIPNSPTORMJKK-INIZCTEOSA-N

>  <fragmenstein_error>  (43) 
None

>  <original SMILES>  (43) 
O=C(N[C@@H]1CNc2ccccc2C1)c1ccnc(N2CCNCC2)c1

>  <inchikey>  (43) 
MGIPNSPTORMJKK-INIZCTEOSA-N

>  <SLURM_JOB_NAME>  (43) 
BulkDock.place:Flavi_NS5_RdRp:RdRp_knitwork_green_site_rna_tunnel_pure_split4000_batch007

>  <scratch_subdir>  (43) 
/opt/xchem-fragalysis-2/maxwin/BulkDock/SCRATCH/217078/C35691-P118

>  <alias>  (43) 
None

>  <SLURM_JOB_ID>  (43) 
217078

>  <exports>  (43) 
['/opt/xchem-fragalysis-2/maxwin/BulkDock/OUTPUTS/RdRp_knitwork_green_site_rna_tunnel_pure_split4000_batch007_217078.sdf']

$$$$
94606
     RDKit          3D

 19 20  0  0  0  0  0  0  0  0999 V2000
  -21.3692  -33.2181  -23.6536 C   0  0  0  0  0  0  0  0  0  0  0  0
  -22.1033  -32.2007  -22.8044 C   0  0  2  0  0  0  0  0  0  0  0  0
  -21.1487  -31.2092  -22.4350 O   0  0  0  0  0  0  0  0  0  0  0  0
  -22.6751  -32.8306  -21.5305 C   0  0  0  0  0  0  0  0  0  0  0  0
  -23.6939  -32.0022  -20.9328 N   0  0  0  0  0  0  0  0  0  0  0  0
  -25.1038  -31.6154  -21.4491 C   0  0  0  0  0  0  0  0  0  0  0  0
  -25.6095  -31.8399  -22.4439 O   0  0  0  0  0  0  0  0  0  0  0  0
  -25.6599  -30.9219  -20.1748 N   0  0  0  0  0  0  0  0  0  0  0  0
  -26.9468  -30.4752  -19.8792 C   0  0  0  0  0  0  0  0  0  0  0  0
  -27.9459  -30.5109  -20.8427 C   0  0  0  0  0  0  0  0  0  0  0  0
  -29.2510  -30.2534  -20.5952 N   0  0  0  0  0  0  0  0  0  0  0  0
  -29.5785  -29.9351  -19.3327 C   0  0  0  0  0  0  0  0  0  0  0  0
  -28.6562  -29.7941  -18.3094 C   0  0  0  0  0  0  0  0  0  0  0  0
  -27.3102  -30.0711  -18.5824 C   0  0  0  0  0  0  0  0  0  0  0  0
  -26.3601  -30.0671  -17.5228 N   0  0  0  0  0  0  0  0  0  0  0  0
  -26.5823  -29.8791  -16.1715 C   0  0  0  0  0  0  0  0  0  0  0  0
  -25.4137  -30.1971  -15.5199 C   0  0  0  0  0  0  0  0  0  0  0  0
  -24.5098  -30.4941  -16.5450 C   0  0  0  0  0  0  0  0  0  0  0  0
  -25.0535  -30.3497  -17.7507 N   0  0  0  0  0  0  0  0  0  0  0  0
  2  1  1  6
  2  3  1  0
  2  4  1  0
  4  5  1  0
  5  6  1  0
  6  7  2  0
  6  8  1  0
  8  9  1  0
  9 10  2  0
 10 11  1  0
 11 12  2  0
 12 13  1  0
 13 14  2  0
 14 15  1  0
 15 16  1  0
 16 17  2  0
 17 18  1  0
 18 19  2  0
 14  9  1  0
 19 15  1  0
M  END
>  <HIPPO Pose ID>  (44) 
94606

>  <fragmenstein_outcome>  (44) 
acceptable

>  <energy_score>  (44) 
-39.140091

>  <distance_score>  (44) 
0.745548

>  <fragmenstein_mode>  (44) 
expansion

>  <HIPPO Compound ID>  (44) 
45854

>  <name>  (44) 
BZRJTDRSXCSNRN-VIFPVBQESA-N

>  <ref_pdb>  (44) 
z0211a

>  <ref_mols>  (44) 
z0211a,z0637a

>  <csv_name>  (44) 
RdRp_knitwork_green_site_rna_tunnel_pure_split4000_batch008.csv

>  <fragmenstein_runtime>  (44) 
5.938288

>  <tags>  (44) 
['Fragmenstein placed']

>  <original ID>  (44) 
BZRJTDRSXCSNRN-VIFPVBQESA-N

>  <fragmenstein_error>  (44) 
None

>  <original SMILES>  (44) 
C[C@H](O)CNC(=O)Nc1cnccc1-n1cccn1

>  <inchikey>  (44) 
BZRJTDRSXCSNRN-VIFPVBQESA-N

>  <SLURM_JOB_NAME>  (44) 
BulkDock.place:Flavi_NS5_RdRp:RdRp_knitwork_green_site_rna_tunnel_pure_split4000_batch008

>  <scratch_subdir>  (44) 
/opt/xchem-fragalysis-2/maxwin/BulkDock/SCRATCH/217079/C45854-P102

>  <alias>  (44) 
None

>  <SLURM_JOB_ID>  (44) 
217079

>  <exports>  (44) 
['/opt/xchem-fragalysis-2/maxwin/BulkDock/OUTPUTS/RdRp_knitwork_green_site_rna_tunnel_pure_split4000_batch008_217079.sdf']

$$$$
94612
     RDKit          3D

 19 20  0  0  0  0  0  0  0  0999 V2000
  -21.1623  -32.9677  -23.9334 C   0  0  0  0  0  0  0  0  0  0  0  0
  -22.0266  -32.0782  -23.0608 C   0  0  2  0  0  0  0  0  0  0  0  0
  -21.1795  -31.3070  -22.2052 O   0  0  0  0  0  0  0  0  0  0  0  0
  -22.9756  -32.9021  -22.1990 C   0  0  0  0  0  0  0  0  0  0  0  0
  -23.8472  -32.0688  -21.4079 N   0  0  0  0  0  0  0  0  0  0  0  0
  -25.1546  -31.3295  -21.7959 C   0  0  0  0  0  0  0  0  0  0  0  0
  -25.6683  -31.2234  -22.8084 O   0  0  0  0  0  0  0  0  0  0  0  0
  -25.6108  -30.8644  -20.3847 N   0  0  0  0  0  0  0  0  0  0  0  0
  -26.8047  -30.2795  -19.9701 C   0  0  0  0  0  0  0  0  0  0  0  0
  -27.8301  -30.0357  -20.8693 C   0  0  0  0  0  0  0  0  0  0  0  0
  -29.0886  -29.6937  -20.5127 N   0  0  0  0  0  0  0  0  0  0  0  0
  -29.3334  -29.5788  -19.1942 C   0  0  0  0  0  0  0  0  0  0  0  0
  -28.3641  -29.7079  -18.2136 C   0  0  0  0  0  0  0  0  0  0  0  0
  -27.0667  -30.0600  -18.6052 C   0  0  0  0  0  0  0  0  0  0  0  0
  -26.0409  -30.2099  -17.6253 N   0  0  0  0  0  0  0  0  0  0  0  0
  -26.1343  -30.0596  -16.2578 C   0  0  0  0  0  0  0  0  0  0  0  0
  -24.8791  -30.2611  -15.7348 C   0  0  0  0  0  0  0  0  0  0  0  0
  -24.0799  -30.5557  -16.8443 C   0  0  0  0  0  0  0  0  0  0  0  0
  -24.7704  -30.5503  -17.9842 N   0  0  0  0  0  0  0  0  0  0  0  0
  2  1  1  1
  2  3  1  0
  2  4  1  0
  4  5  1  0
  5  6  1  0
  6  7  2  0
  6  8  1  0
  8  9  1  0
  9 10  2  0
 10 11  1  0
 11 12  2  0
 12 13  1  0
 13 14  2  0
 14 15  1  0
 15 16  1  0
 16 17  2  0
 17 18  1  0
 18 19  2  0
 14  9  1  0
 19 15  1  0
M  END
>  <HIPPO Pose ID>  (45) 
94612

>  <fragmenstein_outcome>  (45) 
acceptable

>  <energy_score>  (45) 
-41.361515

>  <distance_score>  (45) 
0.609216

>  <fragmenstein_mode>  (45) 
expansion

>  <HIPPO Compound ID>  (45) 
45854

>  <name>  (45) 
BZRJTDRSXCSNRN-VIFPVBQESA-N

>  <ref_pdb>  (45) 
z0637a

>  <ref_mols>  (45) 
z0211a,z0637a

>  <csv_name>  (45) 
RdRp_knitwork_green_site_rna_tunnel_pure_split4000_batch008.csv

>  <fragmenstein_runtime>  (45) 
7.895594

>  <tags>  (45) 
['Fragmenstein placed']

>  <original ID>  (45) 
BZRJTDRSXCSNRN-VIFPVBQESA-N

>  <fragmenstein_error>  (45) 
None

>  <original SMILES>  (45) 
C[C@H](O)CNC(=O)Nc1cnccc1-n1cccn1

>  <inchikey>  (45) 
BZRJTDRSXCSNRN-VIFPVBQESA-N

>  <SLURM_JOB_NAME>  (45) 
BulkDock.place:Flavi_NS5_RdRp:RdRp_knitwork_green_site_rna_tunnel_pure_split4000_batch008

>  <scratch_subdir>  (45) 
/opt/xchem-fragalysis-2/maxwin/BulkDock/SCRATCH/217079/C45854-P151

>  <alias>  (45) 
None

>  <SLURM_JOB_ID>  (45) 
217079

>  <exports>  (45) 
['/opt/xchem-fragalysis-2/maxwin/BulkDock/OUTPUTS/RdRp_knitwork_green_site_rna_tunnel_pure_split4000_batch008_217079.sdf']

$$$$
94645
     RDKit          3D

 18 18  0  0  0  0  0  0  0  0999 V2000
  -27.0227  -30.4044  -14.8233 C   0  0  0  0  0  0  0  0  0  0  0  0
  -26.7730  -30.2294  -16.3032 C   0  0  0  0  0  0  0  0  0  0  0  0
  -25.6235  -29.2650  -16.5570 C   0  0  0  0  0  0  0  0  0  0  0  0
  -28.0982  -29.8522  -17.0051 C   0  0  0  0  0  0  0  0  0  0  0  0
  -28.1442  -30.0530  -18.4948 C   0  0  0  0  0  0  0  0  0  0  0  0
  -29.3256  -29.8342  -19.1928 C   0  0  0  0  0  0  0  0  0  0  0  0
  -29.3015  -29.8992  -20.5758 C   0  0  0  0  0  0  0  0  0  0  0  0
  -28.2042  -30.2090  -21.2976 N   0  0  0  0  0  0  0  0  0  0  0  0
  -27.0956  -30.5104  -20.6132 C   0  0  0  0  0  0  0  0  0  0  0  0
  -25.9168  -30.8749  -21.2262 N   0  0  0  0  0  0  0  0  0  0  0  0
  -25.5346  -30.9038  -22.7213 C   0  0  0  0  0  0  0  0  0  0  0  0
  -26.1166  -30.5598  -23.6357 O   0  0  0  0  0  0  0  0  0  0  0  0
  -24.1520  -31.5886  -22.6159 N   0  0  0  0  0  0  0  0  0  0  0  0
  -23.1895  -31.8897  -23.6271 C   0  0  0  0  0  0  0  0  0  0  0  0
  -22.0708  -32.7674  -23.0741 C   0  0  1  0  0  0  0  0  0  0  0  0
  -20.9522  -32.8837  -24.0887 C   0  0  0  0  0  0  0  0  0  0  0  0
  -21.5614  -32.1953  -21.8652 O   0  0  0  0  0  0  0  0  0  0  0  0
  -27.0386  -30.4609  -19.2324 C   0  0  0  0  0  0  0  0  0  0  0  0
  1  2  1  0
  2  3  1  0
  2  4  1  0
  4  5  1  0
  5  6  2  0
  6  7  1  0
  7  8  2  0
  8  9  1  0
  9 10  1  0
 10 11  1  0
 11 12  2  0
 11 13  1  0
 13 14  1  0
 14 15  1  0
 15 16  1  6
 15 17  1  0
  9 18  2  0
 18  5  1  0
M  END
>  <HIPPO Pose ID>  (46) 
94645

>  <fragmenstein_outcome>  (46) 
acceptable

>  <energy_score>  (46) 
-3.239573

>  <distance_score>  (46) 
0.863737

>  <fragmenstein_mode>  (46) 
expansion

>  <HIPPO Compound ID>  (46) 
46078

>  <name>  (46) 
ZRLXVOMEEDTWJD-SNVBAGLBSA-N

>  <ref_pdb>  (46) 
z0211a

>  <ref_mols>  (46) 
z0211a,z0637a

>  <csv_name>  (46) 
RdRp_knitwork_green_site_rna_tunnel_pure_split4000_batch008.csv

>  <fragmenstein_runtime>  (46) 
4.929103

>  <tags>  (46) 
['Fragmenstein placed']

>  <original ID>  (46) 
ZRLXVOMEEDTWJD-SNVBAGLBSA-N

>  <fragmenstein_error>  (46) 
None

>  <original SMILES>  (46) 
CC(C)Cc1ccnc(NC(=O)NC[C@@H](C)O)c1

>  <inchikey>  (46) 
ZRLXVOMEEDTWJD-SNVBAGLBSA-N

>  <SLURM_JOB_NAME>  (46) 
BulkDock.place:Flavi_NS5_RdRp:RdRp_knitwork_green_site_rna_tunnel_pure_split4000_batch008

>  <scratch_subdir>  (46) 
/opt/xchem-fragalysis-2/maxwin/BulkDock/SCRATCH/217079/C46078-P102

>  <alias>  (46) 
None

>  <SLURM_JOB_ID>  (46) 
217079

>  <exports>  (46) 
['/opt/xchem-fragalysis-2/maxwin/BulkDock/OUTPUTS/RdRp_knitwork_green_site_rna_tunnel_pure_split4000_batch008_217079.sdf']

$$$$
94658
     RDKit          3D

 18 18  0  0  0  0  0  0  0  0999 V2000
  -25.4744  -29.0216  -17.2841 C   0  0  0  0  0  0  0  0  0  0  0  0
  -25.8784  -30.2625  -16.5244 C   0  0  0  0  0  0  0  0  0  0  0  0
  -27.2088  -30.1893  -15.7873 C   0  0  0  0  0  0  0  0  0  0  0  0
  -28.7559  -29.6272  -16.5845 S   0  0  0  0  0  0  0  0  0  0  0  0
  -28.6513  -30.0862  -18.3077 C   0  0  0  0  0  0  0  0  0  0  0  0
  -29.8144  -29.9560  -19.0478 C   0  0  0  0  0  0  0  0  0  0  0  0
  -29.7284  -29.9516  -20.4288 C   0  0  0  0  0  0  0  0  0  0  0  0
  -28.4883  -30.1251  -21.0200 C   0  0  0  0  0  0  0  0  0  0  0  0
  -27.4003  -30.4083  -20.2165 C   0  0  0  0  0  0  0  0  0  0  0  0
  -26.1931  -30.7448  -20.7961 N   0  0  0  0  0  0  0  0  0  0  0  0
  -25.7707  -30.7838  -22.2940 C   0  0  0  0  0  0  0  0  0  0  0  0
  -26.3429  -30.4712  -23.2272 O   0  0  0  0  0  0  0  0  0  0  0  0
  -24.3855  -31.4667  -22.1503 N   0  0  0  0  0  0  0  0  0  0  0  0
  -23.4894  -31.9768  -23.1547 C   0  0  0  0  0  0  0  0  0  0  0  0
  -22.1348  -32.4240  -22.6141 C   0  0  1  0  0  0  0  0  0  0  0  0
  -21.2349  -32.9086  -23.7387 C   0  0  0  0  0  0  0  0  0  0  0  0
  -21.4712  -31.3634  -21.9362 O   0  0  0  0  0  0  0  0  0  0  0  0
  -27.4708  -30.3995  -18.8759 N   0  0  0  0  0  0  0  0  0  0  0  0
  1  2  1  0
  2  3  1  0
  3  4  1  0
  4  5  1  0
  5  6  2  0
  6  7  1  0
  7  8  2  0
  8  9  1  0
  9 10  1  0
 10 11  1  0
 11 12  2  0
 11 13  1  0
 13 14  1  0
 14 15  1  0
 15 16  1  6
 15 17  1  0
  9 18  2  0
 18  5  1  0
M  END
>  <HIPPO Pose ID>  (47) 
94658

>  <fragmenstein_outcome>  (47) 
acceptable

>  <energy_score>  (47) 
-32.787032

>  <distance_score>  (47) 
0.89473

>  <fragmenstein_mode>  (47) 
expansion

>  <HIPPO Compound ID>  (47) 
46079

>  <name>  (47) 
YDJAGHINIIAGLN-SECBINFHSA-N

>  <ref_pdb>  (47) 
z0211a

>  <ref_mols>  (47) 
z0211a,z0637a

>  <csv_name>  (47) 
RdRp_knitwork_green_site_rna_tunnel_pure_split4000_batch008.csv

>  <fragmenstein_runtime>  (47) 
5.235919

>  <tags>  (47) 
['Fragmenstein placed']

>  <original ID>  (47) 
YDJAGHINIIAGLN-SECBINFHSA-N

>  <fragmenstein_error>  (47) 
None

>  <original SMILES>  (47) 
CCCSc1cccc(NC(=O)NC[C@@H](C)O)n1

>  <inchikey>  (47) 
YDJAGHINIIAGLN-SECBINFHSA-N

>  <SLURM_JOB_NAME>  (47) 
BulkDock.place:Flavi_NS5_RdRp:RdRp_knitwork_green_site_rna_tunnel_pure_split4000_batch008

>  <scratch_subdir>  (47) 
/opt/xchem-fragalysis-2/maxwin/BulkDock/SCRATCH/217079/C46079-P102

>  <alias>  (47) 
None

>  <SLURM_JOB_ID>  (47) 
217079

>  <exports>  (47) 
['/opt/xchem-fragalysis-2/maxwin/BulkDock/OUTPUTS/RdRp_knitwork_green_site_rna_tunnel_pure_split4000_batch008_217079.sdf']

$$$$
94667
     RDKit          3D

 18 18  0  0  0  0  0  0  0  0999 V2000
  -25.1762  -29.3309  -17.0558 C   0  0  0  0  0  0  0  0  0  0  0  0
  -25.8769  -30.5266  -16.4576 C   0  0  0  0  0  0  0  0  0  0  0  0
  -27.1907  -30.1964  -15.7616 C   0  0  0  0  0  0  0  0  0  0  0  0
  -28.6966  -29.6014  -16.6211 S   0  0  0  0  0  0  0  0  0  0  0  0
  -28.4976  -29.8851  -18.3716 C   0  0  0  0  0  0  0  0  0  0  0  0
  -29.6034  -29.5917  -19.1542 C   0  0  0  0  0  0  0  0  0  0  0  0
  -29.4539  -29.4973  -20.5278 C   0  0  0  0  0  0  0  0  0  0  0  0
  -28.2088  -29.7376  -21.0806 C   0  0  0  0  0  0  0  0  0  0  0  0
  -27.1929  -30.1755  -20.2542 C   0  0  0  0  0  0  0  0  0  0  0  0
  -26.0300  -30.6826  -20.7993 N   0  0  0  0  0  0  0  0  0  0  0  0
  -25.5232  -30.6858  -22.2771 C   0  0  0  0  0  0  0  0  0  0  0  0
  -25.9701  -30.2028  -23.2119 O   0  0  0  0  0  0  0  0  0  0  0  0
  -24.2919  -31.6219  -22.1214 N   0  0  0  0  0  0  0  0  0  0  0  0
  -23.4378  -32.2114  -23.1178 C   0  0  0  0  0  0  0  0  0  0  0  0
  -22.0416  -32.5396  -22.5992 C   0  0  1  0  0  0  0  0  0  0  0  0
  -21.1377  -32.9855  -23.7355 C   0  0  0  0  0  0  0  0  0  0  0  0
  -21.4430  -31.4257  -21.9460 O   0  0  0  0  0  0  0  0  0  0  0  0
  -27.3186  -30.2420  -18.9130 N   0  0  0  0  0  0  0  0  0  0  0  0
  1  2  1  0
  2  3  1  0
  3  4  1  0
  4  5  1  0
  5  6  2  0
  6  7  1  0
  7  8  2  0
  8  9  1  0
  9 10  1  0
 10 11  1  0
 11 12  2  0
 11 13  1  0
 13 14  1  0
 14 15  1  0
 15 16  1  6
 15 17  1  0
  9 18  2  0
 18  5  1  0
M  END
>  <HIPPO Pose ID>  (48) 
94667

>  <fragmenstein_outcome>  (48) 
acceptable

>  <energy_score>  (48) 
-32.187994

>  <distance_score>  (48) 
0.92535

>  <fragmenstein_mode>  (48) 
expansion

>  <HIPPO Compound ID>  (48) 
46079

>  <name>  (48) 
YDJAGHINIIAGLN-SECBINFHSA-N

>  <ref_pdb>  (48) 
z0637a

>  <ref_mols>  (48) 
z0211a,z0637a

>  <csv_name>  (48) 
RdRp_knitwork_green_site_rna_tunnel_pure_split4000_batch008.csv

>  <fragmenstein_runtime>  (48) 
6.001322

>  <tags>  (48) 
['Fragmenstein placed']

>  <original ID>  (48) 
YDJAGHINIIAGLN-SECBINFHSA-N

>  <fragmenstein_error>  (48) 
None

>  <original SMILES>  (48) 
CCCSc1cccc(NC(=O)NC[C@@H](C)O)n1

>  <inchikey>  (48) 
YDJAGHINIIAGLN-SECBINFHSA-N

>  <SLURM_JOB_NAME>  (48) 
BulkDock.place:Flavi_NS5_RdRp:RdRp_knitwork_green_site_rna_tunnel_pure_split4000_batch008

>  <scratch_subdir>  (48) 
/opt/xchem-fragalysis-2/maxwin/BulkDock/SCRATCH/217079/C46079-P151

>  <alias>  (48) 
None

>  <SLURM_JOB_ID>  (48) 
217079

>  <exports>  (48) 
['/opt/xchem-fragalysis-2/maxwin/BulkDock/OUTPUTS/RdRp_knitwork_green_site_rna_tunnel_pure_split4000_batch008_217079.sdf']

$$$$
94712
     RDKit          3D

 17 17  0  0  0  0  0  0  0  0999 V2000
  -27.5582  -29.5461  -16.3435 C   0  0  0  0  0  0  0  0  0  0  0  0
  -27.7127  -29.8077  -17.8108 C   0  0  0  0  0  0  0  0  0  0  0  0
  -26.5804  -30.0700  -18.5804 C   0  0  0  0  0  0  0  0  0  0  0  0
  -26.7559  -30.6207  -19.8389 C   0  0  0  0  0  0  0  0  0  0  0  0
  -25.6388  -31.1612  -20.4379 N   0  0  0  0  0  0  0  0  0  0  0  0
  -25.5081  -32.3271  -21.4489 C   0  0  0  0  0  0  0  0  0  0  0  0
  -26.3115  -32.9397  -21.9728 O   0  0  0  0  0  0  0  0  0  0  0  0
  -23.9676  -32.3534  -21.6070 N   0  0  0  0  0  0  0  0  0  0  0  0
  -23.1391  -33.0871  -22.5219 C   0  0  0  0  0  0  0  0  0  0  0  0
  -22.0277  -32.1751  -23.0432 C   0  0  2  0  0  0  0  0  0  0  0  0
  -21.1984  -32.8581  -24.1099 C   0  0  0  0  0  0  0  0  0  0  0  0
  -21.1711  -31.7935  -21.9585 O   0  0  0  0  0  0  0  0  0  0  0  0
  -27.9652  -30.7579  -20.4204 N   0  0  0  0  0  0  0  0  0  0  0  0
  -29.0546  -30.4277  -19.6913 C   0  0  0  0  0  0  0  0  0  0  0  0
  -28.9764  -30.0135  -18.3760 C   0  0  0  0  0  0  0  0  0  0  0  0
  -30.1222  -29.9802  -17.5341 C   0  0  0  0  0  0  0  0  0  0  0  0
  -30.9307  -29.9866  -16.7045 N   0  0  0  0  0  0  0  0  0  0  0  0
  1  2  1  0
  2  3  2  0
  3  4  1  0
  4  5  1  0
  5  6  1  0
  6  7  2  0
  6  8  1  0
  8  9  1  0
  9 10  1  0
 10 11  1  6
 10 12  1  0
  4 13  2  0
 13 14  1  0
 14 15  2  0
 15 16  1  0
 16 17  3  0
 15  2  1  0
M  END
>  <HIPPO Pose ID>  (49) 
94712

>  <fragmenstein_outcome>  (49) 
acceptable

>  <energy_score>  (49) 
-8.616846

>  <distance_score>  (49) 
0.986429

>  <fragmenstein_mode>  (49) 
expansion

>  <HIPPO Compound ID>  (49) 
46310

>  <name>  (49) 
BGMUFSVKJQXEHU-QMMMGPOBSA-N

>  <ref_pdb>  (49) 
z0211a

>  <ref_mols>  (49) 
z0211a,z0637a

>  <csv_name>  (49) 
RdRp_knitwork_green_site_rna_tunnel_pure_split4000_batch008.csv

>  <fragmenstein_runtime>  (49) 
4.068113

>  <tags>  (49) 
['Fragmenstein placed']

>  <original ID>  (49) 
BGMUFSVKJQXEHU-QMMMGPOBSA-N

>  <fragmenstein_error>  (49) 
None

>  <original SMILES>  (49) 
Cc1cc(NC(=O)NC[C@H](C)O)ncc1C#N

>  <inchikey>  (49) 
BGMUFSVKJQXEHU-QMMMGPOBSA-N

>  <SLURM_JOB_NAME>  (49) 
BulkDock.place:Flavi_NS5_RdRp:RdRp_knitwork_green_site_rna_tunnel_pure_split4000_batch008

>  <scratch_subdir>  (49) 
/opt/xchem-fragalysis-2/maxwin/BulkDock/SCRATCH/217079/C46310-P102

>  <alias>  (49) 
None

>  <SLURM_JOB_ID>  (49) 
217079

>  <exports>  (49) 
['/opt/xchem-fragalysis-2/maxwin/BulkDock/OUTPUTS/RdRp_knitwork_green_site_rna_tunnel_pure_split4000_batch008_217079.sdf']

$$$$
94723
     RDKit          3D

 17 17  0  0  0  0  0  0  0  0999 V2000
  -20.7184  -32.9247  -23.8673 C   0  0  0  0  0  0  0  0  0  0  0  0
  -21.6374  -32.5271  -22.7352 C   0  0  1  0  0  0  0  0  0  0  0  0
  -21.1493  -31.3373  -22.1227 O   0  0  0  0  0  0  0  0  0  0  0  0
  -23.0263  -32.3348  -23.2986 C   0  0  0  0  0  0  0  0  0  0  0  0
  -23.9461  -31.7971  -22.3532 N   0  0  0  0  0  0  0  0  0  0  0  0
  -25.2326  -30.9816  -22.5678 C   0  0  0  0  0  0  0  0  0  0  0  0
  -25.7680  -30.6956  -23.5268 O   0  0  0  0  0  0  0  0  0  0  0  0
  -25.6386  -30.7527  -21.0863 N   0  0  0  0  0  0  0  0  0  0  0  0
  -26.7905  -30.2275  -20.5512 C   0  0  0  0  0  0  0  0  0  0  0  0
  -27.6713  -29.8641  -21.4971 N   0  0  0  0  0  0  0  0  0  0  0  0
  -28.9297  -29.6616  -21.1451 C   0  0  0  0  0  0  0  0  0  0  0  0
  -29.3736  -29.8855  -19.8688 C   0  0  0  0  0  0  0  0  0  0  0  0
  -30.7715  -30.0232  -19.7860 C   0  0  0  0  0  0  0  0  0  0  0  0
  -31.8972  -30.1443  -20.0125 N   0  0  0  0  0  0  0  0  0  0  0  0
  -28.4458  -30.0576  -18.8469 C   0  0  0  0  0  0  0  0  0  0  0  0
  -27.0997  -30.1933  -19.2002 C   0  0  0  0  0  0  0  0  0  0  0  0
  -25.7707  -30.2981  -17.8680 Br  0  0  0  0  0  0  0  0  0  0  0  0
  2  1  1  6
  2  3  1  0
  2  4  1  0
  4  5  1  0
  5  6  1  0
  6  7  2  0
  6  8  1  0
  8  9  1  0
  9 10  2  0
 10 11  1  0
 11 12  2  0
 12 13  1  0
 13 14  3  0
 12 15  1  0
 15 16  2  0
 16 17  1  0
 16  9  1  0
M  END
>  <HIPPO Pose ID>  (50) 
94723

>  <fragmenstein_outcome>  (50) 
acceptable

>  <energy_score>  (50) 
-0.319346

>  <distance_score>  (50) 
0.844285

>  <fragmenstein_mode>  (50) 
expansion

>  <HIPPO Compound ID>  (50) 
46322

>  <name>  (50) 
DBJUVUAOAUKVJM-ZCFIWIBFSA-N

>  <ref_pdb>  (50) 
z0211a

>  <ref_mols>  (50) 
z0211a,z0637a

>  <csv_name>  (50) 
RdRp_knitwork_green_site_rna_tunnel_pure_split4000_batch008.csv

>  <fragmenstein_runtime>  (50) 
3.478274

>  <tags>  (50) 
['Fragmenstein placed']

>  <original ID>  (50) 
DBJUVUAOAUKVJM-ZCFIWIBFSA-N

>  <fragmenstein_error>  (50) 
None

>  <original SMILES>  (50) 
C[C@@H](O)CNC(=O)Nc1ncc(C#N)cc1Br

>  <inchikey>  (50) 
DBJUVUAOAUKVJM-ZCFIWIBFSA-N

>  <SLURM_JOB_NAME>  (50) 
BulkDock.place:Flavi_NS5_RdRp:RdRp_knitwork_green_site_rna_tunnel_pure_split4000_batch008

>  <scratch_subdir>  (50) 
/opt/xchem-fragalysis-2/maxwin/BulkDock/SCRATCH/217079/C46322-P102

>  <alias>  (50) 
None

>  <SLURM_JOB_ID>  (50) 
217079

>  <exports>  (50) 
['/opt/xchem-fragalysis-2/maxwin/BulkDock/OUTPUTS/RdRp_knitwork_green_site_rna_tunnel_pure_split4000_batch008_217079.sdf']

$$$$
94726
     RDKit          3D

 17 17  0  0  0  0  0  0  0  0999 V2000
  -21.1231  -33.0140  -24.2179 C   0  0  0  0  0  0  0  0  0  0  0  0
  -21.9654  -32.6418  -23.0160 C   0  0  1  0  0  0  0  0  0  0  0  0
  -21.3635  -31.5347  -22.3380 O   0  0  0  0  0  0  0  0  0  0  0  0
  -23.4072  -32.3344  -23.4247 C   0  0  0  0  0  0  0  0  0  0  0  0
  -24.0996  -31.7069  -22.3352 N   0  0  0  0  0  0  0  0  0  0  0  0
  -25.3814  -30.8352  -22.3292 C   0  0  0  0  0  0  0  0  0  0  0  0
  -26.0088  -30.4413  -23.1961 O   0  0  0  0  0  0  0  0  0  0  0  0
  -25.6150  -30.7434  -20.8013 N   0  0  0  0  0  0  0  0  0  0  0  0
  -26.6867  -30.2423  -20.0885 C   0  0  0  0  0  0  0  0  0  0  0  0
  -27.8799  -30.0246  -20.6866 N   0  0  0  0  0  0  0  0  0  0  0  0
  -28.9492  -29.7984  -19.8768 C   0  0  0  0  0  0  0  0  0  0  0  0
  -28.8458  -29.7271  -18.4990 C   0  0  0  0  0  0  0  0  0  0  0  0
  -29.9255  -29.6155  -17.5944 C   0  0  0  0  0  0  0  0  0  0  0  0
  -30.6413  -29.5631  -16.6876 N   0  0  0  0  0  0  0  0  0  0  0  0
  -27.5970  -29.8368  -17.9137 C   0  0  0  0  0  0  0  0  0  0  0  0
  -26.5131  -30.1304  -18.7086 C   0  0  0  0  0  0  0  0  0  0  0  0
  -24.8708  -30.4158  -17.8273 Br  0  0  0  0  0  0  0  0  0  0  0  0
  2  1  1  6
  2  3  1  0
  2  4  1  0
  4  5  1  0
  5  6  1  0
  6  7  2  0
  6  8  1  0
  8  9  1  0
  9 10  2  0
 10 11  1  0
 11 12  2  0
 12 13  1  0
 13 14  3  0
 12 15  1  0
 15 16  2  0
 16 17  1  0
 16  9  1  0
M  END
>  <HIPPO Pose ID>  (51) 
94726

>  <fragmenstein_outcome>  (51) 
acceptable

>  <energy_score>  (51) 
-10.151674

>  <distance_score>  (51) 
0.851788

>  <fragmenstein_mode>  (51) 
expansion

>  <HIPPO Compound ID>  (51) 
46322

>  <name>  (51) 
DBJUVUAOAUKVJM-ZCFIWIBFSA-N

>  <ref_pdb>  (51) 
z0637a

>  <ref_mols>  (51) 
z0211a,z0637a

>  <csv_name>  (51) 
RdRp_knitwork_green_site_rna_tunnel_pure_split4000_batch008.csv

>  <fragmenstein_runtime>  (51) 
3.932084

>  <tags>  (51) 
['Fragmenstein placed']

>  <original ID>  (51) 
DBJUVUAOAUKVJM-ZCFIWIBFSA-N

>  <fragmenstein_error>  (51) 
None

>  <original SMILES>  (51) 
C[C@@H](O)CNC(=O)Nc1ncc(C#N)cc1Br

>  <inchikey>  (51) 
DBJUVUAOAUKVJM-ZCFIWIBFSA-N

>  <SLURM_JOB_NAME>  (51) 
BulkDock.place:Flavi_NS5_RdRp:RdRp_knitwork_green_site_rna_tunnel_pure_split4000_batch008

>  <scratch_subdir>  (51) 
/opt/xchem-fragalysis-2/maxwin/BulkDock/SCRATCH/217079/C46322-P151

>  <alias>  (51) 
None

>  <SLURM_JOB_ID>  (51) 
217079

>  <exports>  (51) 
['/opt/xchem-fragalysis-2/maxwin/BulkDock/OUTPUTS/RdRp_knitwork_green_site_rna_tunnel_pure_split4000_batch008_217079.sdf']

$$$$
94733
     RDKit          3D

 17 17  0  0  0  0  0  0  0  0999 V2000
  -30.3607  -30.2055  -20.5593 C   0  0  0  0  0  0  0  0  0  0  0  0
  -29.2063  -30.1172  -19.6227 C   0  0  0  0  0  0  0  0  0  0  0  0
  -29.4254  -29.7659  -18.3051 C   0  0  0  0  0  0  0  0  0  0  0  0
  -28.3283  -29.6009  -17.4879 C   0  0  0  0  0  0  0  0  0  0  0  0
  -27.0529  -29.8752  -17.9890 C   0  0  0  0  0  0  0  0  0  0  0  0
  -25.9692  -29.7335  -17.0912 C   0  0  0  0  0  0  0  0  0  0  0  0
  -25.1586  -29.5628  -16.2833 N   0  0  0  0  0  0  0  0  0  0  0  0
  -26.9112  -30.3425  -19.2891 C   0  0  0  0  0  0  0  0  0  0  0  0
  -25.6860  -30.8236  -19.7526 N   0  0  0  0  0  0  0  0  0  0  0  0
  -25.3363  -31.6013  -21.0564 C   0  0  0  0  0  0  0  0  0  0  0  0
  -25.9923  -31.8782  -21.9468 O   0  0  0  0  0  0  0  0  0  0  0  0
  -23.8576  -31.9766  -20.7413 N   0  0  0  0  0  0  0  0  0  0  0  0
  -22.9447  -32.8542  -21.4410 C   0  0  0  0  0  0  0  0  0  0  0  0
  -22.3367  -32.2010  -22.6885 C   0  0  2  0  0  0  0  0  0  0  0  0
  -21.6670  -33.2248  -23.5892 C   0  0  0  0  0  0  0  0  0  0  0  0
  -21.3227  -31.2831  -22.2810 O   0  0  0  0  0  0  0  0  0  0  0  0
  -27.9780  -30.4250  -20.1106 N   0  0  0  0  0  0  0  0  0  0  0  0
  1  2  1  0
  2  3  2  0
  3  4  1  0
  4  5  2  0
  5  6  1  0
  6  7  3  0
  5  8  1  0
  8  9  1  0
  9 10  1  0
 10 11  2  0
 10 12  1  0
 12 13  1  0
 13 14  1  0
 14 15  1  6
 14 16  1  0
  8 17  2  0
 17  2  1  0
M  END
>  <HIPPO Pose ID>  (52) 
94733

>  <fragmenstein_outcome>  (52) 
acceptable

>  <energy_score>  (52) 
-9.040232

>  <distance_score>  (52) 
0.951975

>  <fragmenstein_mode>  (52) 
expansion

>  <HIPPO Compound ID>  (52) 
46345

>  <name>  (52) 
IZPLABZDEJOLGZ-QMMMGPOBSA-N

>  <ref_pdb>  (52) 
z0211a

>  <ref_mols>  (52) 
z0211a,z0637a

>  <csv_name>  (52) 
RdRp_knitwork_green_site_rna_tunnel_pure_split4000_batch008.csv

>  <fragmenstein_runtime>  (52) 
4.96999

>  <tags>  (52) 
['Fragmenstein placed']

>  <original ID>  (52) 
IZPLABZDEJOLGZ-QMMMGPOBSA-N

>  <fragmenstein_error>  (52) 
None

>  <original SMILES>  (52) 
Cc1ccc(C#N)c(NC(=O)NC[C@H](C)O)n1

>  <inchikey>  (52) 
IZPLABZDEJOLGZ-QMMMGPOBSA-N

>  <SLURM_JOB_NAME>  (52) 
BulkDock.place:Flavi_NS5_RdRp:RdRp_knitwork_green_site_rna_tunnel_pure_split4000_batch008

>  <scratch_subdir>  (52) 
/opt/xchem-fragalysis-2/maxwin/BulkDock/SCRATCH/217079/C46345-P102

>  <alias>  (52) 
None

>  <SLURM_JOB_ID>  (52) 
217079

>  <exports>  (52) 
['/opt/xchem-fragalysis-2/maxwin/BulkDock/OUTPUTS/RdRp_knitwork_green_site_rna_tunnel_pure_split4000_batch008_217079.sdf']

$$$$
94739
     RDKit          3D

 17 17  0  0  0  0  0  0  0  0999 V2000
  -30.6066  -29.8573  -20.7142 C   0  0  0  0  0  0  0  0  0  0  0  0
  -29.3679  -29.7738  -19.8855 C   0  0  0  0  0  0  0  0  0  0  0  0
  -29.4837  -29.6289  -18.5137 C   0  0  0  0  0  0  0  0  0  0  0  0
  -28.3348  -29.6685  -17.7515 C   0  0  0  0  0  0  0  0  0  0  0  0
  -27.1111  -29.9366  -18.3701 C   0  0  0  0  0  0  0  0  0  0  0  0
  -25.9692  -29.9950  -17.5281 C   0  0  0  0  0  0  0  0  0  0  0  0
  -25.1107  -29.9992  -16.7505 N   0  0  0  0  0  0  0  0  0  0  0  0
  -27.0700  -30.1148  -19.7502 C   0  0  0  0  0  0  0  0  0  0  0  0
  -25.9392  -30.6195  -20.3913 N   0  0  0  0  0  0  0  0  0  0  0  0
  -25.6061  -30.7332  -21.9139 C   0  0  0  0  0  0  0  0  0  0  0  0
  -26.1838  -30.3586  -22.8254 O   0  0  0  0  0  0  0  0  0  0  0  0
  -24.3115  -31.5946  -21.8279 N   0  0  0  0  0  0  0  0  0  0  0  0
  -23.5437  -32.2337  -22.8694 C   0  0  0  0  0  0  0  0  0  0  0  0
  -22.0412  -31.9492  -22.8413 C   0  0  2  0  0  0  0  0  0  0  0  0
  -21.3109  -32.9512  -23.7244 C   0  0  0  0  0  0  0  0  0  0  0  0
  -21.5305  -32.0783  -21.5124 O   0  0  0  0  0  0  0  0  0  0  0  0
  -28.1807  -29.9829  -20.5056 N   0  0  0  0  0  0  0  0  0  0  0  0
  1  2  1  0
  2  3  2  0
  3  4  1  0
  4  5  2  0
  5  6  1  0
  6  7  3  0
  5  8  1  0
  8  9  1  0
  9 10  1  0
 10 11  2  0
 10 12  1  0
 12 13  1  0
 13 14  1  0
 14 15  1  6
 14 16  1  0
  8 17  2  0
 17  2  1  0
M  END
>  <HIPPO Pose ID>  (53) 
94739

>  <fragmenstein_outcome>  (53) 
acceptable

>  <energy_score>  (53) 
-5.709191

>  <distance_score>  (53) 
0.604736

>  <fragmenstein_mode>  (53) 
expansion

>  <HIPPO Compound ID>  (53) 
46345

>  <name>  (53) 
IZPLABZDEJOLGZ-QMMMGPOBSA-N

>  <ref_pdb>  (53) 
z0637a

>  <ref_mols>  (53) 
z0211a,z0637a

>  <csv_name>  (53) 
RdRp_knitwork_green_site_rna_tunnel_pure_split4000_batch008.csv

>  <fragmenstein_runtime>  (53) 
3.855843

>  <tags>  (53) 
['Fragmenstein placed']

>  <original ID>  (53) 
IZPLABZDEJOLGZ-QMMMGPOBSA-N

>  <fragmenstein_error>  (53) 
None

>  <original SMILES>  (53) 
Cc1ccc(C#N)c(NC(=O)NC[C@H](C)O)n1

>  <inchikey>  (53) 
IZPLABZDEJOLGZ-QMMMGPOBSA-N

>  <SLURM_JOB_NAME>  (53) 
BulkDock.place:Flavi_NS5_RdRp:RdRp_knitwork_green_site_rna_tunnel_pure_split4000_batch008

>  <scratch_subdir>  (53) 
/opt/xchem-fragalysis-2/maxwin/BulkDock/SCRATCH/217079/C46345-P151

>  <alias>  (53) 
None

>  <SLURM_JOB_ID>  (53) 
217079

>  <exports>  (53) 
['/opt/xchem-fragalysis-2/maxwin/BulkDock/OUTPUTS/RdRp_knitwork_green_site_rna_tunnel_pure_split4000_batch008_217079.sdf']

$$$$
94766
     RDKit          3D

 17 17  0  0  0  0  0  0  0  0999 V2000
  -26.1425  -29.9850  -16.1982 C   0  0  0  0  0  0  0  0  0  0  0  0
  -25.9190  -29.8995  -17.5982 O   0  0  0  0  0  0  0  0  0  0  0  0
  -27.0319  -29.9850  -18.3885 C   0  0  0  0  0  0  0  0  0  0  0  0
  -26.8308  -30.4806  -19.6774 C   0  0  0  0  0  0  0  0  0  0  0  0
  -25.5655  -30.9523  -20.0284 N   0  0  0  0  0  0  0  0  0  0  0  0
  -25.1032  -31.7674  -21.2714 C   0  0  0  0  0  0  0  0  0  0  0  0
  -25.6833  -32.0886  -22.1977 O   0  0  0  0  0  0  0  0  0  0  0  0
  -23.6322  -32.0471  -20.8630 N   0  0  0  0  0  0  0  0  0  0  0  0
  -22.6268  -32.8673  -21.4951 C   0  0  0  0  0  0  0  0  0  0  0  0
  -22.0910  -32.2072  -22.7700 C   0  0  2  0  0  0  0  0  0  0  0  0
  -21.3583  -33.1953  -23.6544 C   0  0  0  0  0  0  0  0  0  0  0  0
  -21.1464  -31.2048  -22.3996 O   0  0  0  0  0  0  0  0  0  0  0  0
  -27.8981  -30.5645  -20.5671 C   0  0  0  0  0  0  0  0  0  0  0  0
  -29.1509  -30.1857  -20.1236 C   0  0  0  0  0  0  0  0  0  0  0  0
  -29.3982  -29.7588  -18.8723 N   0  0  0  0  0  0  0  0  0  0  0  0
  -28.3386  -29.6588  -18.0404 C   0  0  0  0  0  0  0  0  0  0  0  0
  -28.6219  -29.2300  -16.8012 F   0  0  0  0  0  0  0  0  0  0  0  0
  1  2  1  0
  2  3  1  0
  3  4  2  0
  4  5  1  0
  5  6  1  0
  6  7  2  0
  6  8  1  0
  8  9  1  0
  9 10  1  0
 10 11  1  6
 10 12  1  0
  4 13  1  0
 13 14  2  0
 14 15  1  0
 15 16  2  0
 16 17  1  0
 16  3  1  0
M  END
>  <HIPPO Pose ID>  (54) 
94766

>  <fragmenstein_outcome>  (54) 
acceptable

>  <energy_score>  (54) 
-5.750785

>  <distance_score>  (54) 
0.860029

>  <fragmenstein_mode>  (54) 
expansion

>  <HIPPO Compound ID>  (54) 
46462

>  <name>  (54) 
IHDFUVJUYRUGRC-LURJTMIESA-N

>  <ref_pdb>  (54) 
z0211a

>  <ref_mols>  (54) 
z0211a,z0637a

>  <csv_name>  (54) 
RdRp_knitwork_green_site_rna_tunnel_pure_split4000_batch008.csv

>  <fragmenstein_runtime>  (54) 
4.661688

>  <tags>  (54) 
['Fragmenstein placed']

>  <original ID>  (54) 
IHDFUVJUYRUGRC-LURJTMIESA-N

>  <fragmenstein_error>  (54) 
None

>  <original SMILES>  (54) 
COc1c(NC(=O)NC[C@H](C)O)ccnc1F

>  <inchikey>  (54) 
IHDFUVJUYRUGRC-LURJTMIESA-N

>  <SLURM_JOB_NAME>  (54) 
BulkDock.place:Flavi_NS5_RdRp:RdRp_knitwork_green_site_rna_tunnel_pure_split4000_batch008

>  <scratch_subdir>  (54) 
/opt/xchem-fragalysis-2/maxwin/BulkDock/SCRATCH/217079/C46462-P102

>  <alias>  (54) 
None

>  <SLURM_JOB_ID>  (54) 
217079

>  <exports>  (54) 
['/opt/xchem-fragalysis-2/maxwin/BulkDock/OUTPUTS/RdRp_knitwork_green_site_rna_tunnel_pure_split4000_batch008_217079.sdf']

$$$$
94773
     RDKit          3D

 17 17  0  0  0  0  0  0  0  0999 V2000
  -25.8085  -30.0851  -16.7713 C   0  0  0  0  0  0  0  0  0  0  0  0
  -25.9695  -30.5532  -18.1045 O   0  0  0  0  0  0  0  0  0  0  0  0
  -27.0922  -30.1344  -18.7661 C   0  0  0  0  0  0  0  0  0  0  0  0
  -27.0189  -30.1329  -20.1648 C   0  0  0  0  0  0  0  0  0  0  0  0
  -25.8927  -30.6744  -20.7822 N   0  0  0  0  0  0  0  0  0  0  0  0
  -25.4777  -30.6977  -22.2883 C   0  0  0  0  0  0  0  0  0  0  0  0
  -25.9702  -30.2103  -23.1975 O   0  0  0  0  0  0  0  0  0  0  0  0
  -24.2620  -31.6595  -22.2008 N   0  0  0  0  0  0  0  0  0  0  0  0
  -23.4832  -32.2749  -23.2433 C   0  0  0  0  0  0  0  0  0  0  0  0
  -21.9801  -32.0208  -23.1166 C   0  0  2  0  0  0  0  0  0  0  0  0
  -21.2197  -33.0405  -23.9471 C   0  0  0  0  0  0  0  0  0  0  0  0
  -21.5614  -32.1579  -21.7551 O   0  0  0  0  0  0  0  0  0  0  0  0
  -28.1031  -29.7112  -20.9193 C   0  0  0  0  0  0  0  0  0  0  0  0
  -29.2722  -29.4031  -20.2552 C   0  0  0  0  0  0  0  0  0  0  0  0
  -29.3983  -29.4199  -18.9145 N   0  0  0  0  0  0  0  0  0  0  0  0
  -28.3054  -29.7572  -18.2002 C   0  0  0  0  0  0  0  0  0  0  0  0
  -28.4639  -29.7471  -16.8677 F   0  0  0  0  0  0  0  0  0  0  0  0
  1  2  1  0
  2  3  1  0
  3  4  2  0
  4  5  1  0
  5  6  1  0
  6  7  2  0
  6  8  1  0
  8  9  1  0
  9 10  1  0
 10 11  1  6
 10 12  1  0
  4 13  1  0
 13 14  2  0
 14 15  1  0
 15 16  2  0
 16 17  1  0
 16  3  1  0
M  END
>  <HIPPO Pose ID>  (55) 
94773

>  <fragmenstein_outcome>  (55) 
acceptable

>  <energy_score>  (55) 
-4.796873

>  <distance_score>  (55) 
0.692678

>  <fragmenstein_mode>  (55) 
expansion

>  <HIPPO Compound ID>  (55) 
46462

>  <name>  (55) 
IHDFUVJUYRUGRC-LURJTMIESA-N

>  <ref_pdb>  (55) 
z0637a

>  <ref_mols>  (55) 
z0211a,z0637a

>  <csv_name>  (55) 
RdRp_knitwork_green_site_rna_tunnel_pure_split4000_batch008.csv

>  <fragmenstein_runtime>  (55) 
4.05077

>  <tags>  (55) 
['Fragmenstein placed']

>  <original ID>  (55) 
IHDFUVJUYRUGRC-LURJTMIESA-N

>  <fragmenstein_error>  (55) 
None

>  <original SMILES>  (55) 
COc1c(NC(=O)NC[C@H](C)O)ccnc1F

>  <inchikey>  (55) 
IHDFUVJUYRUGRC-LURJTMIESA-N

>  <SLURM_JOB_NAME>  (55) 
BulkDock.place:Flavi_NS5_RdRp:RdRp_knitwork_green_site_rna_tunnel_pure_split4000_batch008

>  <scratch_subdir>  (55) 
/opt/xchem-fragalysis-2/maxwin/BulkDock/SCRATCH/217079/C46462-P151

>  <alias>  (55) 
None

>  <SLURM_JOB_ID>  (55) 
217079

>  <exports>  (55) 
['/opt/xchem-fragalysis-2/maxwin/BulkDock/OUTPUTS/RdRp_knitwork_green_site_rna_tunnel_pure_split4000_batch008_217079.sdf']

$$$$
94787
     RDKit          3D

 17 17  0  0  0  0  0  0  0  0999 V2000
  -25.7533  -29.6613  -17.1912 C   0  0  0  0  0  0  0  0  0  0  0  0
  -26.2471  -30.6156  -18.1253 O   0  0  0  0  0  0  0  0  0  0  0  0
  -27.2992  -30.1559  -18.8769 C   0  0  0  0  0  0  0  0  0  0  0  0
  -28.5515  -29.8435  -18.3325 C   0  0  0  0  0  0  0  0  0  0  0  0
  -28.8855  -29.7952  -16.8710 C   0  0  0  0  0  0  0  0  0  0  0  0
  -29.5811  -29.5433  -19.2273 C   0  0  0  0  0  0  0  0  0  0  0  0
  -29.3171  -29.4704  -20.5825 C   0  0  0  0  0  0  0  0  0  0  0  0
  -28.1133  -29.7256  -21.1189 N   0  0  0  0  0  0  0  0  0  0  0  0
  -27.1449  -30.1249  -20.2767 C   0  0  0  0  0  0  0  0  0  0  0  0
  -26.0010  -30.6713  -20.8337 N   0  0  0  0  0  0  0  0  0  0  0  0
  -25.5027  -30.6807  -22.3128 C   0  0  0  0  0  0  0  0  0  0  0  0
  -25.9359  -30.1741  -23.2413 O   0  0  0  0  0  0  0  0  0  0  0  0
  -24.3058  -31.6630  -22.1705 N   0  0  0  0  0  0  0  0  0  0  0  0
  -23.4780  -32.2763  -23.1769 C   0  0  0  0  0  0  0  0  0  0  0  0
  -21.9846  -32.0012  -22.9963 C   0  0  2  0  0  0  0  0  0  0  0  0
  -21.1729  -33.0456  -23.7439 C   0  0  0  0  0  0  0  0  0  0  0  0
  -21.6273  -32.0698  -21.6110 O   0  0  0  0  0  0  0  0  0  0  0  0
  1  2  1  0
  2  3  1  0
  3  4  2  0
  4  5  1  0
  4  6  1  0
  6  7  2  0
  7  8  1  0
  8  9  2  0
  9 10  1  0
 10 11  1  0
 11 12  2  0
 11 13  1  0
 13 14  1  0
 14 15  1  0
 15 16  1  6
 15 17  1  0
  9  3  1  0
M  END
>  <HIPPO Pose ID>  (56) 
94787

>  <fragmenstein_outcome>  (56) 
acceptable

>  <energy_score>  (56) 
-0.304206

>  <distance_score>  (56) 
0.637622

>  <fragmenstein_mode>  (56) 
expansion

>  <HIPPO Compound ID>  (56) 
46484

>  <name>  (56) 
XJPXRQBFSWUOCY-QMMMGPOBSA-N

>  <ref_pdb>  (56) 
z0637a

>  <ref_mols>  (56) 
z0211a,z0637a

>  <csv_name>  (56) 
RdRp_knitwork_green_site_rna_tunnel_pure_split4000_batch008.csv

>  <fragmenstein_runtime>  (56) 
4.226598

>  <tags>  (56) 
['Fragmenstein placed']

>  <original ID>  (56) 
XJPXRQBFSWUOCY-QMMMGPOBSA-N

>  <fragmenstein_error>  (56) 
None

>  <original SMILES>  (56) 
COc1c(C)ccnc1NC(=O)NC[C@H](C)O

>  <inchikey>  (56) 
XJPXRQBFSWUOCY-QMMMGPOBSA-N

>  <SLURM_JOB_NAME>  (56) 
BulkDock.place:Flavi_NS5_RdRp:RdRp_knitwork_green_site_rna_tunnel_pure_split4000_batch008

>  <scratch_subdir>  (56) 
/opt/xchem-fragalysis-2/maxwin/BulkDock/SCRATCH/217079/C46484-P151

>  <alias>  (56) 
None

>  <SLURM_JOB_ID>  (56) 
217079

>  <exports>  (56) 
['/opt/xchem-fragalysis-2/maxwin/BulkDock/OUTPUTS/RdRp_knitwork_green_site_rna_tunnel_pure_split4000_batch008_217079.sdf']

$$$$
94789
     RDKit          3D

 17 17  0  0  0  0  0  0  0  0999 V2000
  -27.2699  -29.9176  -15.7830 C   0  0  0  0  0  0  0  0  0  0  0  0
  -28.4221  -29.7454  -16.5928 O   0  0  0  0  0  0  0  0  0  0  0  0
  -28.2521  -29.8994  -17.9359 C   0  0  0  0  0  0  0  0  0  0  0  0
  -29.4186  -29.8434  -18.6865 C   0  0  0  0  0  0  0  0  0  0  0  0
  -29.4649  -29.9240  -20.0284 N   0  0  0  0  0  0  0  0  0  0  0  0
  -28.2866  -30.1176  -20.6531 C   0  0  0  0  0  0  0  0  0  0  0  0
  -28.3486  -30.1561  -21.9850 F   0  0  0  0  0  0  0  0  0  0  0  0
  -27.0673  -30.3001  -19.9937 C   0  0  0  0  0  0  0  0  0  0  0  0
  -25.8933  -30.6811  -20.6526 N   0  0  0  0  0  0  0  0  0  0  0  0
  -25.5867  -30.8056  -22.1764 C   0  0  0  0  0  0  0  0  0  0  0  0
  -26.2275  -30.5414  -23.0781 O   0  0  0  0  0  0  0  0  0  0  0  0
  -24.1996  -31.4871  -22.1013 N   0  0  0  0  0  0  0  0  0  0  0  0
  -23.3856  -32.0567  -23.1392 C   0  0  0  0  0  0  0  0  0  0  0  0
  -21.9926  -32.4474  -22.6627 C   0  0  1  0  0  0  0  0  0  0  0  0
  -21.1351  -32.9130  -23.8250 C   0  0  0  0  0  0  0  0  0  0  0  0
  -21.3418  -31.3530  -22.0243 O   0  0  0  0  0  0  0  0  0  0  0  0
  -27.0538  -30.1482  -18.6073 C   0  0  0  0  0  0  0  0  0  0  0  0
  1  2  1  0
  2  3  1  0
  3  4  2  0
  4  5  1  0
  5  6  2  0
  6  7  1  0
  6  8  1  0
  8  9  1  0
  9 10  1  0
 10 11  2  0
 10 12  1  0
 12 13  1  0
 13 14  1  0
 14 15  1  6
 14 16  1  0
  8 17  2  0
 17  3  1  0
M  END
>  <HIPPO Pose ID>  (57) 
94789

>  <fragmenstein_outcome>  (57) 
acceptable

>  <energy_score>  (57) 
-12.455196

>  <distance_score>  (57) 
0.610154

>  <fragmenstein_mode>  (57) 
expansion

>  <HIPPO Compound ID>  (57) 
46520

>  <name>  (57) 
ZJUVOQYBFSXHNE-ZCFIWIBFSA-N

>  <ref_pdb>  (57) 
z0211a

>  <ref_mols>  (57) 
z0211a,z0637a

>  <csv_name>  (57) 
RdRp_knitwork_green_site_rna_tunnel_pure_split4000_batch008.csv

>  <fragmenstein_runtime>  (57) 
3.892093

>  <tags>  (57) 
['Fragmenstein placed']

>  <original ID>  (57) 
ZJUVOQYBFSXHNE-ZCFIWIBFSA-N

>  <fragmenstein_error>  (57) 
None

>  <original SMILES>  (57) 
COc1cnc(F)c(NC(=O)NC[C@@H](C)O)c1

>  <inchikey>  (57) 
ZJUVOQYBFSXHNE-ZCFIWIBFSA-N

>  <SLURM_JOB_NAME>  (57) 
BulkDock.place:Flavi_NS5_RdRp:RdRp_knitwork_green_site_rna_tunnel_pure_split4000_batch008

>  <scratch_subdir>  (57) 
/opt/xchem-fragalysis-2/maxwin/BulkDock/SCRATCH/217079/C46520-P102

>  <alias>  (57) 
None

>  <SLURM_JOB_ID>  (57) 
217079

>  <exports>  (57) 
['/opt/xchem-fragalysis-2/maxwin/BulkDock/OUTPUTS/RdRp_knitwork_green_site_rna_tunnel_pure_split4000_batch008_217079.sdf']

$$$$
94792
     RDKit          3D

 17 17  0  0  0  0  0  0  0  0999 V2000
  -27.8287  -29.8059  -16.0202 C   0  0  0  0  0  0  0  0  0  0  0  0
  -28.8615  -30.0153  -16.9724 O   0  0  0  0  0  0  0  0  0  0  0  0
  -28.5151  -29.9514  -18.2884 C   0  0  0  0  0  0  0  0  0  0  0  0
  -29.5256  -29.5631  -19.1523 C   0  0  0  0  0  0  0  0  0  0  0  0
  -29.3638  -29.3583  -20.4742 N   0  0  0  0  0  0  0  0  0  0  0  0
  -28.1421  -29.6225  -20.9768 C   0  0  0  0  0  0  0  0  0  0  0  0
  -27.9920  -29.3613  -22.2784 F   0  0  0  0  0  0  0  0  0  0  0  0
  -27.0930  -30.1599  -20.2320 C   0  0  0  0  0  0  0  0  0  0  0  0
  -25.9229  -30.6780  -20.8026 N   0  0  0  0  0  0  0  0  0  0  0  0
  -25.4463  -30.6993  -22.2939 C   0  0  0  0  0  0  0  0  0  0  0  0
  -25.9144  -30.2307  -23.2247 O   0  0  0  0  0  0  0  0  0  0  0  0
  -24.2110  -31.6271  -22.1519 N   0  0  0  0  0  0  0  0  0  0  0  0
  -23.3766  -32.2264  -23.1569 C   0  0  0  0  0  0  0  0  0  0  0  0
  -21.9921  -32.5891  -22.6353 C   0  0  1  0  0  0  0  0  0  0  0  0
  -21.0729  -32.9787  -23.7781 C   0  0  0  0  0  0  0  0  0  0  0  0
  -21.4099  -31.5106  -21.9101 O   0  0  0  0  0  0  0  0  0  0  0  0
  -27.2852  -30.2949  -18.8497 C   0  0  0  0  0  0  0  0  0  0  0  0
  1  2  1  0
  2  3  1  0
  3  4  2  0
  4  5  1  0
  5  6  2  0
  6  7  1  0
  6  8  1  0
  8  9  1  0
  9 10  1  0
 10 11  2  0
 10 12  1  0
 12 13  1  0
 13 14  1  0
 14 15  1  6
 14 16  1  0
  8 17  2  0
 17  3  1  0
M  END
>  <HIPPO Pose ID>  (58) 
94792

>  <fragmenstein_outcome>  (58) 
acceptable

>  <energy_score>  (58) 
-9.71977

>  <distance_score>  (58) 
0.625669

>  <fragmenstein_mode>  (58) 
expansion

>  <HIPPO Compound ID>  (58) 
46520

>  <name>  (58) 
ZJUVOQYBFSXHNE-ZCFIWIBFSA-N

>  <ref_pdb>  (58) 
z0637a

>  <ref_mols>  (58) 
z0211a,z0637a

>  <csv_name>  (58) 
RdRp_knitwork_green_site_rna_tunnel_pure_split4000_batch008.csv

>  <fragmenstein_runtime>  (58) 
2.816097

>  <tags>  (58) 
['Fragmenstein placed']

>  <original ID>  (58) 
ZJUVOQYBFSXHNE-ZCFIWIBFSA-N

>  <fragmenstein_error>  (58) 
None

>  <original SMILES>  (58) 
COc1cnc(F)c(NC(=O)NC[C@@H](C)O)c1

>  <inchikey>  (58) 
ZJUVOQYBFSXHNE-ZCFIWIBFSA-N

>  <SLURM_JOB_NAME>  (58) 
BulkDock.place:Flavi_NS5_RdRp:RdRp_knitwork_green_site_rna_tunnel_pure_split4000_batch008

>  <scratch_subdir>  (58) 
/opt/xchem-fragalysis-2/maxwin/BulkDock/SCRATCH/217079/C46520-P151

>  <alias>  (58) 
None

>  <SLURM_JOB_ID>  (58) 
217079

>  <exports>  (58) 
['/opt/xchem-fragalysis-2/maxwin/BulkDock/OUTPUTS/RdRp_knitwork_green_site_rna_tunnel_pure_split4000_batch008_217079.sdf']

$$$$
94835
     RDKit          3D

 15 15  0  0  0  0  0  0  0  0999 V2000
  -21.2421  -32.9658  -23.7279 C   0  0  0  0  0  0  0  0  0  0  0  0
  -21.9924  -32.0824  -22.7457 C   0  0  2  0  0  0  0  0  0  0  0  0
  -21.7682  -32.5763  -21.4235 O   0  0  0  0  0  0  0  0  0  0  0  0
  -23.4912  -32.1011  -23.0429 C   0  0  0  0  0  0  0  0  0  0  0  0
  -24.2888  -31.5169  -21.9967 N   0  0  0  0  0  0  0  0  0  0  0  0
  -25.6808  -30.8386  -22.0562 C   0  0  0  0  0  0  0  0  0  0  0  0
  -26.3393  -30.5888  -22.9506 O   0  0  0  0  0  0  0  0  0  0  0  0
  -25.9592  -30.6930  -20.5310 N   0  0  0  0  0  0  0  0  0  0  0  0
  -27.1190  -30.3061  -19.8574 C   0  0  0  0  0  0  0  0  0  0  0  0
  -28.3252  -30.2557  -20.5545 C   0  0  0  0  0  0  0  0  0  0  0  0
  -29.5167  -30.0558  -19.8687 C   0  0  0  0  0  0  0  0  0  0  0  0
  -29.4556  -29.8671  -18.5009 C   0  0  0  0  0  0  0  0  0  0  0  0
  -28.3050  -29.8083  -17.7995 N   0  0  0  0  0  0  0  0  0  0  0  0
  -27.1598  -30.0404  -18.4907 C   0  0  0  0  0  0  0  0  0  0  0  0
  -25.5596  -29.9773  -17.4768 Br  0  0  0  0  0  0  0  0  0  0  0  0
  2  1  1  6
  2  3  1  0
  2  4  1  0
  4  5  1  0
  5  6  1  0
  6  7  2  0
  6  8  1  0
  8  9  1  0
  9 10  2  0
 10 11  1  0
 11 12  2  0
 12 13  1  0
 13 14  2  0
 14 15  1  0
 14  9  1  0
M  END
>  <HIPPO Pose ID>  (59) 
94835

>  <fragmenstein_outcome>  (59) 
acceptable

>  <energy_score>  (59) 
-6.491962

>  <distance_score>  (59) 
0.552631

>  <fragmenstein_mode>  (59) 
expansion

>  <HIPPO Compound ID>  (59) 
46750

>  <name>  (59) 
VKOLUPGBVICVDG-LURJTMIESA-N

>  <ref_pdb>  (59) 
z0211a

>  <ref_mols>  (59) 
z0211a,z0637a

>  <csv_name>  (59) 
RdRp_knitwork_green_site_rna_tunnel_pure_split4000_batch008.csv

>  <fragmenstein_runtime>  (59) 
2.221333

>  <tags>  (59) 
['Fragmenstein placed']

>  <original ID>  (59) 
VKOLUPGBVICVDG-LURJTMIESA-N

>  <fragmenstein_error>  (59) 
None

>  <original SMILES>  (59) 
C[C@H](O)CNC(=O)Nc1cccnc1Br

>  <inchikey>  (59) 
VKOLUPGBVICVDG-LURJTMIESA-N

>  <SLURM_JOB_NAME>  (59) 
BulkDock.place:Flavi_NS5_RdRp:RdRp_knitwork_green_site_rna_tunnel_pure_split4000_batch008

>  <scratch_subdir>  (59) 
/opt/xchem-fragalysis-2/maxwin/BulkDock/SCRATCH/217079/C46750-P102

>  <alias>  (59) 
None

>  <SLURM_JOB_ID>  (59) 
217079

>  <exports>  (59) 
['/opt/xchem-fragalysis-2/maxwin/BulkDock/OUTPUTS/RdRp_knitwork_green_site_rna_tunnel_pure_split4000_batch008_217079.sdf']

$$$$
94845
     RDKit          3D

 15 15  0  0  0  0  0  0  0  0999 V2000
  -21.2399  -32.9770  -23.9964 C   0  0  0  0  0  0  0  0  0  0  0  0
  -22.0073  -32.0355  -23.0851 C   0  0  2  0  0  0  0  0  0  0  0  0
  -21.6703  -32.3454  -21.7275 O   0  0  0  0  0  0  0  0  0  0  0  0
  -23.5118  -32.2187  -23.2834 C   0  0  0  0  0  0  0  0  0  0  0  0
  -24.2736  -31.5975  -22.2349 N   0  0  0  0  0  0  0  0  0  0  0  0
  -25.5170  -30.6730  -22.3086 C   0  0  0  0  0  0  0  0  0  0  0  0
  -26.0512  -30.2244  -23.2137 O   0  0  0  0  0  0  0  0  0  0  0  0
  -25.8849  -30.6202  -20.7916 N   0  0  0  0  0  0  0  0  0  0  0  0
  -27.0083  -30.0922  -20.1516 C   0  0  0  0  0  0  0  0  0  0  0  0
  -28.1404  -29.7547  -20.8825 C   0  0  0  0  0  0  0  0  0  0  0  0
  -29.3434  -29.5291  -20.2213 C   0  0  0  0  0  0  0  0  0  0  0  0
  -29.3570  -29.5835  -18.8386 C   0  0  0  0  0  0  0  0  0  0  0  0
  -28.2597  -29.7959  -18.0882 N   0  0  0  0  0  0  0  0  0  0  0  0
  -27.1108  -30.0555  -18.7572 C   0  0  0  0  0  0  0  0  0  0  0  0
  -25.5785  -30.3549  -17.6755 Br  0  0  0  0  0  0  0  0  0  0  0  0
  2  1  1  6
  2  3  1  0
  2  4  1  0
  4  5  1  0
  5  6  1  0
  6  7  2  0
  6  8  1  0
  8  9  1  0
  9 10  2  0
 10 11  1  0
 11 12  2  0
 12 13  1  0
 13 14  2  0
 14 15  1  0
 14  9  1  0
M  END
>  <HIPPO Pose ID>  (60) 
94845

>  <fragmenstein_outcome>  (60) 
acceptable

>  <energy_score>  (60) 
-6.539952

>  <distance_score>  (60) 
0.620661

>  <fragmenstein_mode>  (60) 
expansion

>  <HIPPO Compound ID>  (60) 
46750

>  <name>  (60) 
VKOLUPGBVICVDG-LURJTMIESA-N

>  <ref_pdb>  (60) 
z0637a

>  <ref_mols>  (60) 
z0211a,z0637a

>  <csv_name>  (60) 
RdRp_knitwork_green_site_rna_tunnel_pure_split4000_batch008.csv

>  <fragmenstein_runtime>  (60) 
2.407815

>  <tags>  (60) 
['Fragmenstein placed']

>  <original ID>  (60) 
VKOLUPGBVICVDG-LURJTMIESA-N

>  <fragmenstein_error>  (60) 
None

>  <original SMILES>  (60) 
C[C@H](O)CNC(=O)Nc1cccnc1Br

>  <inchikey>  (60) 
VKOLUPGBVICVDG-LURJTMIESA-N

>  <SLURM_JOB_NAME>  (60) 
BulkDock.place:Flavi_NS5_RdRp:RdRp_knitwork_green_site_rna_tunnel_pure_split4000_batch008

>  <scratch_subdir>  (60) 
/opt/xchem-fragalysis-2/maxwin/BulkDock/SCRATCH/217079/C46750-P151

>  <alias>  (60) 
None

>  <SLURM_JOB_ID>  (60) 
217079

>  <exports>  (60) 
['/opt/xchem-fragalysis-2/maxwin/BulkDock/OUTPUTS/RdRp_knitwork_green_site_rna_tunnel_pure_split4000_batch008_217079.sdf']

$$$$
94853
     RDKit          3D

 16 16  0  0  0  0  0  0  0  0999 V2000
  -30.8263  -30.2780  -20.1727 C   0  0  0  0  0  0  0  0  0  0  0  0
  -29.4776  -30.0851  -19.5720 C   0  0  0  0  0  0  0  0  0  0  0  0
  -29.3389  -29.8105  -18.2224 C   0  0  0  0  0  0  0  0  0  0  0  0
  -28.1535  -29.6950  -17.5939 N   0  0  0  0  0  0  0  0  0  0  0  0
  -27.0467  -29.9555  -18.3329 C   0  0  0  0  0  0  0  0  0  0  0  0
  -25.4067  -29.8928  -17.3939 Br  0  0  0  0  0  0  0  0  0  0  0  0
  -27.0723  -30.2809  -19.6850 C   0  0  0  0  0  0  0  0  0  0  0  0
  -25.9415  -30.6571  -20.4117 N   0  0  0  0  0  0  0  0  0  0  0  0
  -25.7545  -30.8773  -21.9400 C   0  0  0  0  0  0  0  0  0  0  0  0
  -26.4784  -30.7063  -22.8003 O   0  0  0  0  0  0  0  0  0  0  0  0
  -24.3323  -31.4930  -21.9363 N   0  0  0  0  0  0  0  0  0  0  0  0
  -23.5013  -31.9289  -23.0306 C   0  0  0  0  0  0  0  0  0  0  0  0
  -22.1131  -32.3944  -22.5969 C   0  0  1  0  0  0  0  0  0  0  0  0
  -21.2951  -32.8755  -23.7838 C   0  0  0  0  0  0  0  0  0  0  0  0
  -21.3993  -31.3419  -21.9551 O   0  0  0  0  0  0  0  0  0  0  0  0
  -28.3170  -30.3001  -20.3124 C   0  0  0  0  0  0  0  0  0  0  0  0
  1  2  1  0
  2  3  2  0
  3  4  1  0
  4  5  2  0
  5  6  1  0
  5  7  1  0
  7  8  1  0
  8  9  1  0
  9 10  2  0
  9 11  1  0
 11 12  1  0
 12 13  1  0
 13 14  1  6
 13 15  1  0
  7 16  2  0
 16  2  1  0
M  END
>  <HIPPO Pose ID>  (61) 
94853

>  <fragmenstein_outcome>  (61) 
acceptable

>  <energy_score>  (61) 
-30.622708

>  <distance_score>  (61) 
0.639947

>  <fragmenstein_mode>  (61) 
expansion

>  <HIPPO Compound ID>  (61) 
46793

>  <name>  (61) 
MXGHSNNNCNSFEO-SSDOTTSWSA-N

>  <ref_pdb>  (61) 
z0211a

>  <ref_mols>  (61) 
z0211a,z0637a

>  <csv_name>  (61) 
RdRp_knitwork_green_site_rna_tunnel_pure_split4000_batch008.csv

>  <fragmenstein_runtime>  (61) 
2.862256

>  <tags>  (61) 
['Fragmenstein placed']

>  <original ID>  (61) 
MXGHSNNNCNSFEO-SSDOTTSWSA-N

>  <fragmenstein_error>  (61) 
None

>  <original SMILES>  (61) 
Cc1cnc(Br)c(NC(=O)NC[C@@H](C)O)c1

>  <inchikey>  (61) 
MXGHSNNNCNSFEO-SSDOTTSWSA-N

>  <SLURM_JOB_NAME>  (61) 
BulkDock.place:Flavi_NS5_RdRp:RdRp_knitwork_green_site_rna_tunnel_pure_split4000_batch008

>  <scratch_subdir>  (61) 
/opt/xchem-fragalysis-2/maxwin/BulkDock/SCRATCH/217079/C46793-P102

>  <alias>  (61) 
None

>  <SLURM_JOB_ID>  (61) 
217079

>  <exports>  (61) 
['/opt/xchem-fragalysis-2/maxwin/BulkDock/OUTPUTS/RdRp_knitwork_green_site_rna_tunnel_pure_split4000_batch008_217079.sdf']

$$$$
94862
     RDKit          3D

 16 16  0  0  0  0  0  0  0  0999 V2000
  -30.6527  -29.8541  -20.5833 C   0  0  0  0  0  0  0  0  0  0  0  0
  -29.3396  -29.8038  -19.8808 C   0  0  0  0  0  0  0  0  0  0  0  0
  -29.2803  -29.6805  -18.5029 C   0  0  0  0  0  0  0  0  0  0  0  0
  -28.1369  -29.7303  -17.7943 N   0  0  0  0  0  0  0  0  0  0  0  0
  -27.0025  -30.0007  -18.4854 C   0  0  0  0  0  0  0  0  0  0  0  0
  -25.4270  -30.1648  -17.4432 Br  0  0  0  0  0  0  0  0  0  0  0  0
  -26.9529  -30.1747  -19.8683 C   0  0  0  0  0  0  0  0  0  0  0  0
  -25.8077  -30.6222  -20.5342 N   0  0  0  0  0  0  0  0  0  0  0  0
  -25.5302  -30.7977  -22.0602 C   0  0  0  0  0  0  0  0  0  0  0  0
  -26.1746  -30.5275  -22.9618 O   0  0  0  0  0  0  0  0  0  0  0  0
  -24.1701  -31.5384  -21.9872 N   0  0  0  0  0  0  0  0  0  0  0  0
  -23.3966  -32.1696  -23.0224 C   0  0  0  0  0  0  0  0  0  0  0  0
  -21.9887  -32.5418  -22.5743 C   0  0  1  0  0  0  0  0  0  0  0  0
  -21.1405  -32.9774  -23.7561 C   0  0  0  0  0  0  0  0  0  0  0  0
  -21.3503  -31.4518  -21.9169 O   0  0  0  0  0  0  0  0  0  0  0  0
  -28.1435  -30.0149  -20.5679 C   0  0  0  0  0  0  0  0  0  0  0  0
  1  2  1  0
  2  3  2  0
  3  4  1  0
  4  5  2  0
  5  6  1  0
  5  7  1  0
  7  8  1  0
  8  9  1  0
  9 10  2  0
  9 11  1  0
 11 12  1  0
 12 13  1  0
 13 14  1  6
 13 15  1  0
  7 16  2  0
 16  2  1  0
M  END
>  <HIPPO Pose ID>  (62) 
94862

>  <fragmenstein_outcome>  (62) 
acceptable

>  <energy_score>  (62) 
-30.484527

>  <distance_score>  (62) 
0.59564

>  <fragmenstein_mode>  (62) 
expansion

>  <HIPPO Compound ID>  (62) 
46793

>  <name>  (62) 
MXGHSNNNCNSFEO-SSDOTTSWSA-N

>  <ref_pdb>  (62) 
z0637a

>  <ref_mols>  (62) 
z0211a,z0637a

>  <csv_name>  (62) 
RdRp_knitwork_green_site_rna_tunnel_pure_split4000_batch008.csv

>  <fragmenstein_runtime>  (62) 
3.631788

>  <tags>  (62) 
['Fragmenstein placed']

>  <original ID>  (62) 
MXGHSNNNCNSFEO-SSDOTTSWSA-N

>  <fragmenstein_error>  (62) 
None

>  <original SMILES>  (62) 
Cc1cnc(Br)c(NC(=O)NC[C@@H](C)O)c1

>  <inchikey>  (62) 
MXGHSNNNCNSFEO-SSDOTTSWSA-N

>  <SLURM_JOB_NAME>  (62) 
BulkDock.place:Flavi_NS5_RdRp:RdRp_knitwork_green_site_rna_tunnel_pure_split4000_batch008

>  <scratch_subdir>  (62) 
/opt/xchem-fragalysis-2/maxwin/BulkDock/SCRATCH/217079/C46793-P151

>  <alias>  (62) 
None

>  <SLURM_JOB_ID>  (62) 
217079

>  <exports>  (62) 
['/opt/xchem-fragalysis-2/maxwin/BulkDock/OUTPUTS/RdRp_knitwork_green_site_rna_tunnel_pure_split4000_batch008_217079.sdf']

$$$$
94869
     RDKit          3D

 16 16  0  0  0  0  0  0  0  0999 V2000
  -21.2572  -32.9541  -23.6291 C   0  0  0  0  0  0  0  0  0  0  0  0
  -22.0261  -32.1298  -22.6133 C   0  0  2  0  0  0  0  0  0  0  0  0
  -21.0850  -31.4903  -21.7444 O   0  0  0  0  0  0  0  0  0  0  0  0
  -22.9828  -32.9958  -21.7860 C   0  0  0  0  0  0  0  0  0  0  0  0
  -23.9353  -32.1759  -21.0821 N   0  0  0  0  0  0  0  0  0  0  0  0
  -25.4768  -32.0870  -21.2179 C   0  0  0  0  0  0  0  0  0  0  0  0
  -26.1806  -32.5952  -21.9545 O   0  0  0  0  0  0  0  0  0  0  0  0
  -25.7738  -31.0497  -20.0976 N   0  0  0  0  0  0  0  0  0  0  0  0
  -26.9890  -30.5383  -19.6389 C   0  0  0  0  0  0  0  0  0  0  0  0
  -28.1373  -30.6784  -20.4160 C   0  0  0  0  0  0  0  0  0  0  0  0
  -29.3632  -30.3193  -19.8829 C   0  0  0  0  0  0  0  0  0  0  0  0
  -30.4878  -30.4829  -20.5875 F   0  0  0  0  0  0  0  0  0  0  0  0
  -29.4110  -29.8326  -18.5924 C   0  0  0  0  0  0  0  0  0  0  0  0
  -28.3159  -29.5936  -17.8353 N   0  0  0  0  0  0  0  0  0  0  0  0
  -27.1243  -29.9457  -18.3814 C   0  0  0  0  0  0  0  0  0  0  0  0
  -25.6051  -29.7160  -17.2742 Br  0  0  0  0  0  0  0  0  0  0  0  0
  2  1  1  6
  2  3  1  0
  2  4  1  0
  4  5  1  0
  5  6  1  0
  6  7  2  0
  6  8  1  0
  8  9  1  0
  9 10  2  0
 10 11  1  0
 11 12  1  0
 11 13  2  0
 13 14  1  0
 14 15  2  0
 15 16  1  0
 15  9  1  0
M  END
>  <HIPPO Pose ID>  (63) 
94869

>  <fragmenstein_outcome>  (63) 
acceptable

>  <energy_score>  (63) 
-1.746126

>  <distance_score>  (63) 
0.858756

>  <fragmenstein_mode>  (63) 
expansion

>  <HIPPO Compound ID>  (63) 
46807

>  <name>  (63) 
MFLOPZYGSAESOJ-YFKPBYRVSA-N

>  <ref_pdb>  (63) 
z0211a

>  <ref_mols>  (63) 
z0211a,z0637a

>  <csv_name>  (63) 
RdRp_knitwork_green_site_rna_tunnel_pure_split4000_batch008.csv

>  <fragmenstein_runtime>  (63) 
2.786269

>  <tags>  (63) 
['Fragmenstein placed']

>  <original ID>  (63) 
MFLOPZYGSAESOJ-YFKPBYRVSA-N

>  <fragmenstein_error>  (63) 
None

>  <original SMILES>  (63) 
C[C@H](O)CNC(=O)Nc1cc(F)cnc1Br

>  <inchikey>  (63) 
MFLOPZYGSAESOJ-YFKPBYRVSA-N

>  <SLURM_JOB_NAME>  (63) 
BulkDock.place:Flavi_NS5_RdRp:RdRp_knitwork_green_site_rna_tunnel_pure_split4000_batch008

>  <scratch_subdir>  (63) 
/opt/xchem-fragalysis-2/maxwin/BulkDock/SCRATCH/217079/C46807-P102

>  <alias>  (63) 
None

>  <SLURM_JOB_ID>  (63) 
217079

>  <exports>  (63) 
['/opt/xchem-fragalysis-2/maxwin/BulkDock/OUTPUTS/RdRp_knitwork_green_site_rna_tunnel_pure_split4000_batch008_217079.sdf']

$$$$
94874
     RDKit          3D

 16 16  0  0  0  0  0  0  0  0999 V2000
  -21.1316  -32.9995  -23.8998 C   0  0  0  0  0  0  0  0  0  0  0  0
  -21.8849  -32.0677  -22.9651 C   0  0  2  0  0  0  0  0  0  0  0  0
  -21.5958  -32.4398  -21.6120 O   0  0  0  0  0  0  0  0  0  0  0  0
  -23.3863  -32.1701  -23.2236 C   0  0  0  0  0  0  0  0  0  0  0  0
  -24.1739  -31.5274  -22.2085 N   0  0  0  0  0  0  0  0  0  0  0  0
  -25.4736  -30.6898  -22.3258 C   0  0  0  0  0  0  0  0  0  0  0  0
  -26.0443  -30.3388  -23.2506 O   0  0  0  0  0  0  0  0  0  0  0  0
  -25.8281  -30.5559  -20.8105 N   0  0  0  0  0  0  0  0  0  0  0  0
  -26.9775  -30.0556  -20.1906 C   0  0  0  0  0  0  0  0  0  0  0  0
  -28.0926  -29.7284  -20.9533 C   0  0  0  0  0  0  0  0  0  0  0  0
  -29.3110  -29.5362  -20.3228 C   0  0  0  0  0  0  0  0  0  0  0  0
  -30.4129  -29.3233  -21.0517 F   0  0  0  0  0  0  0  0  0  0  0  0
  -29.3729  -29.6017  -18.9436 C   0  0  0  0  0  0  0  0  0  0  0  0
  -28.2932  -29.8071  -18.1573 N   0  0  0  0  0  0  0  0  0  0  0  0
  -27.1196  -30.0399  -18.7964 C   0  0  0  0  0  0  0  0  0  0  0  0
  -25.6140  -30.3369  -17.6781 Br  0  0  0  0  0  0  0  0  0  0  0  0
  2  1  1  6
  2  3  1  0
  2  4  1  0
  4  5  1  0
  5  6  1  0
  6  7  2  0
  6  8  1  0
  8  9  1  0
  9 10  2  0
 10 11  1  0
 11 12  1  0
 11 13  2  0
 13 14  1  0
 14 15  2  0
 15 16  1  0
 15  9  1  0
M  END
>  <HIPPO Pose ID>  (64) 
94874

>  <fragmenstein_outcome>  (64) 
acceptable

>  <energy_score>  (64) 
-0.947538

>  <distance_score>  (64) 
0.619233

>  <fragmenstein_mode>  (64) 
expansion

>  <HIPPO Compound ID>  (64) 
46807

>  <name>  (64) 
MFLOPZYGSAESOJ-YFKPBYRVSA-N

>  <ref_pdb>  (64) 
z0637a

>  <ref_mols>  (64) 
z0211a,z0637a

>  <csv_name>  (64) 
RdRp_knitwork_green_site_rna_tunnel_pure_split4000_batch008.csv

>  <fragmenstein_runtime>  (64) 
2.128364

>  <tags>  (64) 
['Fragmenstein placed']

>  <original ID>  (64) 
MFLOPZYGSAESOJ-YFKPBYRVSA-N

>  <fragmenstein_error>  (64) 
None

>  <original SMILES>  (64) 
C[C@H](O)CNC(=O)Nc1cc(F)cnc1Br

>  <inchikey>  (64) 
MFLOPZYGSAESOJ-YFKPBYRVSA-N

>  <SLURM_JOB_NAME>  (64) 
BulkDock.place:Flavi_NS5_RdRp:RdRp_knitwork_green_site_rna_tunnel_pure_split4000_batch008

>  <scratch_subdir>  (64) 
/opt/xchem-fragalysis-2/maxwin/BulkDock/SCRATCH/217079/C46807-P151

>  <alias>  (64) 
None

>  <SLURM_JOB_ID>  (64) 
217079

>  <exports>  (64) 
['/opt/xchem-fragalysis-2/maxwin/BulkDock/OUTPUTS/RdRp_knitwork_green_site_rna_tunnel_pure_split4000_batch008_217079.sdf']

$$$$
94881
     RDKit          3D

 17 17  0  0  0  0  0  0  0  0999 V2000
  -30.2303  -29.8315  -16.7630 C   0  0  0  0  0  0  0  0  0  0  0  0
  -30.2914  -29.9227  -18.1806 O   0  0  0  0  0  0  0  0  0  0  0  0
  -29.0409  -29.9809  -18.7443 C   0  0  0  0  0  0  0  0  0  0  0  0
  -28.9667  -30.3937  -20.0586 C   0  0  0  0  0  0  0  0  0  0  0  0
  -27.7125  -30.7181  -20.5666 C   0  0  0  0  0  0  0  0  0  0  0  0
  -26.5878  -30.6061  -19.7511 C   0  0  0  0  0  0  0  0  0  0  0  0
  -25.3569  -31.1272  -20.1497 N   0  0  0  0  0  0  0  0  0  0  0  0
  -24.9924  -32.0364  -21.3568 C   0  0  0  0  0  0  0  0  0  0  0  0
  -25.6379  -32.4104  -22.2168 O   0  0  0  0  0  0  0  0  0  0  0  0
  -23.5037  -32.3147  -21.0281 N   0  0  0  0  0  0  0  0  0  0  0  0
  -22.5042  -33.0438  -21.7693 C   0  0  0  0  0  0  0  0  0  0  0  0
  -21.9930  -32.2080  -22.9438 C   0  0  2  0  0  0  0  0  0  0  0  0
  -21.2065  -33.0410  -23.9347 C   0  0  0  0  0  0  0  0  0  0  0  0
  -21.1123  -31.2081  -22.4328 O   0  0  0  0  0  0  0  0  0  0  0  0
  -26.7683  -30.0463  -18.4892 C   0  0  0  0  0  0  0  0  0  0  0  0
  -25.3154  -29.8340  -17.2999 Br  0  0  0  0  0  0  0  0  0  0  0  0
  -27.9704  -29.7291  -17.9716 N   0  0  0  0  0  0  0  0  0  0  0  0
  1  2  1  0
  2  3  1  0
  3  4  2  0
  4  5  1  0
  5  6  2  0
  6  7  1  0
  7  8  1  0
  8  9  2  0
  8 10  1  0
 10 11  1  0
 11 12  1  0
 12 13  1  6
 12 14  1  0
  6 15  1  0
 15 16  1  0
 15 17  2  0
 17  3  1  0
M  END
>  <HIPPO Pose ID>  (65) 
94881

>  <fragmenstein_outcome>  (65) 
acceptable

>  <energy_score>  (65) 
-15.013017

>  <distance_score>  (65) 
0.99609

>  <fragmenstein_mode>  (65) 
expansion

>  <HIPPO Compound ID>  (65) 
46884

>  <name>  (65) 
UCKBYJAHJYDPMO-LURJTMIESA-N

>  <ref_pdb>  (65) 
z0211a

>  <ref_mols>  (65) 
z0211a,z0637a

>  <csv_name>  (65) 
RdRp_knitwork_green_site_rna_tunnel_pure_split4000_batch008.csv

>  <fragmenstein_runtime>  (65) 
6.199352

>  <tags>  (65) 
['Fragmenstein placed']

>  <original ID>  (65) 
UCKBYJAHJYDPMO-LURJTMIESA-N

>  <fragmenstein_error>  (65) 
None

>  <original SMILES>  (65) 
COc1ccc(NC(=O)NC[C@H](C)O)c(Br)n1

>  <inchikey>  (65) 
UCKBYJAHJYDPMO-LURJTMIESA-N

>  <SLURM_JOB_NAME>  (65) 
BulkDock.place:Flavi_NS5_RdRp:RdRp_knitwork_green_site_rna_tunnel_pure_split4000_batch008

>  <scratch_subdir>  (65) 
/opt/xchem-fragalysis-2/maxwin/BulkDock/SCRATCH/217079/C46884-P102

>  <alias>  (65) 
None

>  <SLURM_JOB_ID>  (65) 
217079

>  <exports>  (65) 
['/opt/xchem-fragalysis-2/maxwin/BulkDock/OUTPUTS/RdRp_knitwork_green_site_rna_tunnel_pure_split4000_batch008_217079.sdf']

$$$$
94886
     RDKit          3D

 17 17  0  0  0  0  0  0  0  0999 V2000
  -29.9718  -29.6231  -16.7271 C   0  0  0  0  0  0  0  0  0  0  0  0
  -30.1720  -29.5344  -18.1298 O   0  0  0  0  0  0  0  0  0  0  0  0
  -28.9983  -29.6427  -18.8245 C   0  0  0  0  0  0  0  0  0  0  0  0
  -29.0635  -29.5596  -20.2026 C   0  0  0  0  0  0  0  0  0  0  0  0
  -27.8982  -29.7839  -20.9265 C   0  0  0  0  0  0  0  0  0  0  0  0
  -26.7384  -30.1391  -20.2486 C   0  0  0  0  0  0  0  0  0  0  0  0
  -25.6452  -30.6682  -20.9236 N   0  0  0  0  0  0  0  0  0  0  0  0
  -25.3317  -30.7230  -22.4459 C   0  0  0  0  0  0  0  0  0  0  0  0
  -25.8946  -30.2742  -23.3315 O   0  0  0  0  0  0  0  0  0  0  0  0
  -24.0922  -31.6490  -22.4137 N   0  0  0  0  0  0  0  0  0  0  0  0
  -23.3704  -32.2720  -23.4842 C   0  0  0  0  0  0  0  0  0  0  0  0
  -21.8614  -32.0661  -23.3570 C   0  0  2  0  0  0  0  0  0  0  0  0
  -21.1431  -33.1402  -24.1505 C   0  0  0  0  0  0  0  0  0  0  0  0
  -21.4567  -32.1780  -21.9868 O   0  0  0  0  0  0  0  0  0  0  0  0
  -26.7674  -30.1206  -18.8533 C   0  0  0  0  0  0  0  0  0  0  0  0
  -25.2146  -30.4821  -17.8297 Br  0  0  0  0  0  0  0  0  0  0  0  0
  -27.8682  -29.8581  -18.1347 N   0  0  0  0  0  0  0  0  0  0  0  0
  1  2  1  0
  2  3  1  0
  3  4  2  0
  4  5  1  0
  5  6  2  0
  6  7  1  0
  7  8  1  0
  8  9  2  0
  8 10  1  0
 10 11  1  0
 11 12  1  0
 12 13  1  6
 12 14  1  0
  6 15  1  0
 15 16  1  0
 15 17  2  0
 17  3  1  0
M  END
>  <HIPPO Pose ID>  (66) 
94886

>  <fragmenstein_outcome>  (66) 
acceptable

>  <energy_score>  (66) 
-14.455037

>  <distance_score>  (66) 
0.783422

>  <fragmenstein_mode>  (66) 
expansion

>  <HIPPO Compound ID>  (66) 
46884

>  <name>  (66) 
UCKBYJAHJYDPMO-LURJTMIESA-N

>  <ref_pdb>  (66) 
z0637a

>  <ref_mols>  (66) 
z0211a,z0637a

>  <csv_name>  (66) 
RdRp_knitwork_green_site_rna_tunnel_pure_split4000_batch008.csv

>  <fragmenstein_runtime>  (66) 
4.554388

>  <tags>  (66) 
['Fragmenstein placed']

>  <original ID>  (66) 
UCKBYJAHJYDPMO-LURJTMIESA-N

>  <fragmenstein_error>  (66) 
None

>  <original SMILES>  (66) 
COc1ccc(NC(=O)NC[C@H](C)O)c(Br)n1

>  <inchikey>  (66) 
UCKBYJAHJYDPMO-LURJTMIESA-N

>  <SLURM_JOB_NAME>  (66) 
BulkDock.place:Flavi_NS5_RdRp:RdRp_knitwork_green_site_rna_tunnel_pure_split4000_batch008

>  <scratch_subdir>  (66) 
/opt/xchem-fragalysis-2/maxwin/BulkDock/SCRATCH/217079/C46884-P151

>  <alias>  (66) 
None

>  <SLURM_JOB_ID>  (66) 
217079

>  <exports>  (66) 
['/opt/xchem-fragalysis-2/maxwin/BulkDock/OUTPUTS/RdRp_knitwork_green_site_rna_tunnel_pure_split4000_batch008_217079.sdf']

$$$$
94925
     RDKit          3D

 15 15  0  0  0  0  0  0  0  0999 V2000
  -21.2889  -33.2069  -23.5573 C   0  0  0  0  0  0  0  0  0  0  0  0
  -22.0010  -32.1979  -22.6808 C   0  0  2  0  0  0  0  0  0  0  0  0
  -21.0709  -31.1501  -22.4176 O   0  0  0  0  0  0  0  0  0  0  0  0
  -22.4402  -32.8019  -21.3413 C   0  0  0  0  0  0  0  0  0  0  0  0
  -23.4817  -32.0082  -20.7330 N   0  0  0  0  0  0  0  0  0  0  0  0
  -24.9653  -31.8114  -21.1447 C   0  0  0  0  0  0  0  0  0  0  0  0
  -25.5321  -32.1907  -22.0574 O   0  0  0  0  0  0  0  0  0  0  0  0
  -25.4588  -30.9596  -19.9360 N   0  0  0  0  0  0  0  0  0  0  0  0
  -26.7373  -30.5175  -19.6079 C   0  0  0  0  0  0  0  0  0  0  0  0
  -27.8075  -30.6901  -20.4889 C   0  0  0  0  0  0  0  0  0  0  0  0
  -29.0994  -30.4098  -20.1883 N   0  0  0  0  0  0  0  0  0  0  0  0
  -29.3272  -29.9426  -18.9436 C   0  0  0  0  0  0  0  0  0  0  0  0
  -28.3205  -29.6901  -18.0257 C   0  0  0  0  0  0  0  0  0  0  0  0
  -28.6259  -29.2437  -16.8016 F   0  0  0  0  0  0  0  0  0  0  0  0
  -26.9984  -29.9590  -18.3634 C   0  0  0  0  0  0  0  0  0  0  0  0
  2  1  1  6
  2  3  1  0
  2  4  1  0
  4  5  1  0
  5  6  1  0
  6  7  2  0
  6  8  1  0
  8  9  1  0
  9 10  2  0
 10 11  1  0
 11 12  2  0
 12 13  1  0
 13 14  1  0
 13 15  2  0
 15  9  1  0
M  END
>  <HIPPO Pose ID>  (67) 
94925

>  <fragmenstein_outcome>  (67) 
acceptable

>  <energy_score>  (67) 
-29.440977

>  <distance_score>  (67) 
0.912172

>  <fragmenstein_mode>  (67) 
expansion

>  <HIPPO Compound ID>  (67) 
47119

>  <name>  (67) 
RFYDSEMQLKYQCX-LURJTMIESA-N

>  <ref_pdb>  (67) 
z0211a

>  <ref_mols>  (67) 
z0211a,z0637a

>  <csv_name>  (67) 
RdRp_knitwork_green_site_rna_tunnel_pure_split4000_batch008.csv

>  <fragmenstein_runtime>  (67) 
3.27126

>  <tags>  (67) 
['Fragmenstein placed']

>  <original ID>  (67) 
RFYDSEMQLKYQCX-LURJTMIESA-N

>  <fragmenstein_error>  (67) 
None

>  <original SMILES>  (67) 
C[C@H](O)CNC(=O)Nc1cncc(F)c1

>  <inchikey>  (67) 
RFYDSEMQLKYQCX-LURJTMIESA-N

>  <SLURM_JOB_NAME>  (67) 
BulkDock.place:Flavi_NS5_RdRp:RdRp_knitwork_green_site_rna_tunnel_pure_split4000_batch008

>  <scratch_subdir>  (67) 
/opt/xchem-fragalysis-2/maxwin/BulkDock/SCRATCH/217079/C47119-P102

>  <alias>  (67) 
None

>  <SLURM_JOB_ID>  (67) 
217079

>  <exports>  (67) 
['/opt/xchem-fragalysis-2/maxwin/BulkDock/OUTPUTS/RdRp_knitwork_green_site_rna_tunnel_pure_split4000_batch008_217079.sdf']

$$$$
94928
     RDKit          3D

 15 15  0  0  0  0  0  0  0  0999 V2000
  -21.1381  -33.0722  -23.8682 C   0  0  0  0  0  0  0  0  0  0  0  0
  -21.9073  -32.0172  -23.0927 C   0  0  2  0  0  0  0  0  0  0  0  0
  -21.5353  -32.1222  -21.7141 O   0  0  0  0  0  0  0  0  0  0  0  0
  -23.4082  -32.2551  -23.2583 C   0  0  0  0  0  0  0  0  0  0  0  0
  -24.2015  -31.6438  -22.2256 N   0  0  0  0  0  0  0  0  0  0  0  0
  -25.4394  -30.7131  -22.3272 C   0  0  0  0  0  0  0  0  0  0  0  0
  -25.9425  -30.2509  -23.2431 O   0  0  0  0  0  0  0  0  0  0  0  0
  -25.8561  -30.6779  -20.8211 N   0  0  0  0  0  0  0  0  0  0  0  0
  -26.9926  -30.1556  -20.2139 C   0  0  0  0  0  0  0  0  0  0  0  0
  -28.0653  -29.6820  -20.9609 C   0  0  0  0  0  0  0  0  0  0  0  0
  -29.2784  -29.3912  -20.4367 N   0  0  0  0  0  0  0  0  0  0  0  0
  -29.4043  -29.5368  -19.0991 C   0  0  0  0  0  0  0  0  0  0  0  0
  -28.3628  -29.9008  -18.2695 C   0  0  0  0  0  0  0  0  0  0  0  0
  -28.5459  -29.9584  -16.9444 F   0  0  0  0  0  0  0  0  0  0  0  0
  -27.1383  -30.2370  -18.8314 C   0  0  0  0  0  0  0  0  0  0  0  0
  2  1  1  6
  2  3  1  0
  2  4  1  0
  4  5  1  0
  5  6  1  0
  6  7  2  0
  6  8  1  0
  8  9  1  0
  9 10  2  0
 10 11  1  0
 11 12  2  0
 12 13  1  0
 13 14  1  0
 13 15  2  0
 15  9  1  0
M  END
>  <HIPPO Pose ID>  (68) 
94928

>  <fragmenstein_outcome>  (68) 
acceptable

>  <energy_score>  (68) 
-27.80072

>  <distance_score>  (68) 
0.600509

>  <fragmenstein_mode>  (68) 
expansion

>  <HIPPO Compound ID>  (68) 
47119

>  <name>  (68) 
RFYDSEMQLKYQCX-LURJTMIESA-N

>  <ref_pdb>  (68) 
z0637a

>  <ref_mols>  (68) 
z0211a,z0637a

>  <csv_name>  (68) 
RdRp_knitwork_green_site_rna_tunnel_pure_split4000_batch008.csv

>  <fragmenstein_runtime>  (68) 
2.290639

>  <tags>  (68) 
['Fragmenstein placed']

>  <original ID>  (68) 
RFYDSEMQLKYQCX-LURJTMIESA-N

>  <fragmenstein_error>  (68) 
None

>  <original SMILES>  (68) 
C[C@H](O)CNC(=O)Nc1cncc(F)c1

>  <inchikey>  (68) 
RFYDSEMQLKYQCX-LURJTMIESA-N

>  <SLURM_JOB_NAME>  (68) 
BulkDock.place:Flavi_NS5_RdRp:RdRp_knitwork_green_site_rna_tunnel_pure_split4000_batch008

>  <scratch_subdir>  (68) 
/opt/xchem-fragalysis-2/maxwin/BulkDock/SCRATCH/217079/C47119-P151

>  <alias>  (68) 
None

>  <SLURM_JOB_ID>  (68) 
217079

>  <exports>  (68) 
['/opt/xchem-fragalysis-2/maxwin/BulkDock/OUTPUTS/RdRp_knitwork_green_site_rna_tunnel_pure_split4000_batch008_217079.sdf']

$$$$
94959
     RDKit          3D

 24 26  0  0  0  0  0  0  0  0999 V2000
  -25.4908  -35.9557  -21.5345 C   0  0  0  0  0  0  0  0  0  0  0  0
  -24.6810  -35.4924  -20.3326 C   0  0  2  0  0  0  0  0  0  0  0  0
  -25.4482  -34.5978  -19.4874 N   0  0  0  0  0  0  0  0  0  0  0  0
  -25.1197  -34.0003  -18.0875 C   0  0  0  0  0  0  0  0  0  0  0  0
  -24.2164  -34.2000  -17.3713 O   0  0  0  0  0  0  0  0  0  0  0  0
  -26.2651  -33.0146  -17.7144 C   0  0  0  0  0  0  0  0  0  0  0  0
  -27.0275  -33.5353  -16.5654 N   0  0  0  0  0  0  0  0  0  0  0  0
  -27.9775  -34.5660  -16.9602 C   0  0  0  0  0  0  0  0  0  0  0  0
  -27.6245  -32.4956  -15.7058 C   0  0  0  0  0  0  0  0  0  0  0  0
  -28.8761  -31.7084  -16.1463 C   0  0  0  0  0  0  0  0  0  0  0  0
  -28.7005  -30.9414  -17.3596 N   0  0  0  0  0  0  0  0  0  0  0  0
  -27.8334  -29.9054  -17.5643 C   0  0  0  0  0  0  0  0  0  0  0  0
  -27.9761  -29.5464  -18.8836 C   0  0  0  0  0  0  0  0  0  0  0  0
  -28.9957  -30.3821  -19.3717 C   0  0  0  0  0  0  0  0  0  0  0  0
  -29.4326  -31.2411  -18.4498 N   0  0  0  0  0  0  0  0  0  0  0  0
  -23.4343  -34.7811  -20.7424 C   0  0  0  0  0  0  0  0  0  0  0  0
  -23.1931  -33.5864  -21.3935 C   0  0  0  0  0  0  0  0  0  0  0  0
  -21.8098  -33.3157  -21.2379 C   0  0  0  0  0  0  0  0  0  0  0  0
  -20.9637  -32.2347  -21.5304 C   0  0  0  0  0  0  0  0  0  0  0  0
  -19.6242  -32.3057  -21.1258 C   0  0  0  0  0  0  0  0  0  0  0  0
  -19.1143  -33.4461  -20.4993 C   0  0  0  0  0  0  0  0  0  0  0  0
  -19.9378  -34.5398  -20.2179 C   0  0  0  0  0  0  0  0  0  0  0  0
  -21.2773  -34.4166  -20.5817 C   0  0  0  0  0  0  0  0  0  0  0  0
  -22.2541  -35.3279  -20.3197 O   0  0  0  0  0  0  0  0  0  0  0  0
  2  1  1  6
  2  3  1  0
  3  4  1  0
  4  5  2  0
  4  6  1  0
  6  7  1  0
  7  8  1  0
  7  9  1  0
  9 10  1  0
 10 11  1  0
 11 12  1  0
 12 13  2  0
 13 14  1  0
 14 15  2  0
  2 16  1  0
 16 17  2  0
 17 18  1  0
 18 19  2  0
 19 20  1  0
 20 21  2  0
 21 22  1  0
 22 23  2  0
 23 24  1  0
 15 11  1  0
 24 16  1  0
 23 18  1  0
M  END
>  <HIPPO Pose ID>  (69) 
94959

>  <fragmenstein_outcome>  (69) 
acceptable

>  <energy_score>  (69) 
-10.186522

>  <distance_score>  (69) 
0.977505

>  <fragmenstein_mode>  (69) 
expansion

>  <HIPPO Compound ID>  (69) 
34156

>  <name>  (69) 
GUHXGWKGQSXKGL-AWEZNQCLSA-N

>  <ref_pdb>  (69) 
z0653a

>  <ref_mols>  (69) 
z0653a,3vws-b

>  <csv_name>  (69) 
RdRp_knitwork_green_site_rna_tunnel_pure_split4000_batch013.csv

>  <fragmenstein_runtime>  (69) 
4.471697

>  <tags>  (69) 
['Fragmenstein placed']

>  <original ID>  (69) 
GUHXGWKGQSXKGL-AWEZNQCLSA-N

>  <fragmenstein_error>  (69) 
None

>  <original SMILES>  (69) 
C[C@H](NC(=O)CN(C)CCn1cccn1)c1cc2ccccc2o1

>  <inchikey>  (69) 
GUHXGWKGQSXKGL-AWEZNQCLSA-N

>  <SLURM_JOB_NAME>  (69) 
BulkDock.place:Flavi_NS5_RdRp:RdRp_knitwork_green_site_rna_tunnel_pure_split4000_batch013

>  <scratch_subdir>  (69) 
/opt/xchem-fragalysis-2/maxwin/BulkDock/SCRATCH/217084/C34156-P153

>  <alias>  (69) 
None

>  <SLURM_JOB_ID>  (69) 
217084

>  <exports>  (69) 
['/opt/xchem-fragalysis-2/maxwin/BulkDock/OUTPUTS/RdRp_knitwork_green_site_rna_tunnel_pure_split4000_batch013_217084.sdf']

$$$$
94967
     RDKit          3D

 17 17  0  0  0  0  0  0  0  0999 V2000
  -26.0461  -29.9571  -16.2284 C   0  0  0  0  0  0  0  0  0  0  0  0
  -25.8382  -30.1488  -17.7228 C   0  0  0  0  0  0  0  0  0  0  0  0
  -27.1100  -30.1168  -18.5371 C   0  0  0  0  0  0  0  0  0  0  0  0
  -28.2739  -29.8869  -17.8663 N   0  0  0  0  0  0  0  0  0  0  0  0
  -29.4201  -29.8848  -18.5846 C   0  0  0  0  0  0  0  0  0  0  0  0
  -29.4599  -30.0211  -19.9549 C   0  0  0  0  0  0  0  0  0  0  0  0
  -30.6241  -29.9966  -20.6144 F   0  0  0  0  0  0  0  0  0  0  0  0
  -28.2736  -30.2113  -20.6361 C   0  0  0  0  0  0  0  0  0  0  0  0
  -27.0783  -30.3162  -19.9226 C   0  0  0  0  0  0  0  0  0  0  0  0
  -25.9155  -30.6777  -20.6050 N   0  0  0  0  0  0  0  0  0  0  0  0
  -25.6510  -30.8367  -22.1313 C   0  0  0  0  0  0  0  0  0  0  0  0
  -26.3271  -30.6194  -23.0204 O   0  0  0  0  0  0  0  0  0  0  0  0
  -24.2318  -31.4553  -22.0814 N   0  0  0  0  0  0  0  0  0  0  0  0
  -23.4203  -32.0106  -23.1316 C   0  0  0  0  0  0  0  0  0  0  0  0
  -22.0268  -32.4216  -22.6663 C   0  0  1  0  0  0  0  0  0  0  0  0
  -21.1899  -32.9183  -23.8314 C   0  0  0  0  0  0  0  0  0  0  0  0
  -21.3439  -31.3347  -22.0501 O   0  0  0  0  0  0  0  0  0  0  0  0
  1  2  1  0
  2  3  1  0
  3  4  2  0
  4  5  1  0
  5  6  2  0
  6  7  1  0
  6  8  1  0
  8  9  2  0
  9 10  1  0
 10 11  1  0
 11 12  2  0
 11 13  1  0
 13 14  1  0
 14 15  1  0
 15 16  1  6
 15 17  1  0
  9  3  1  0
M  END
>  <HIPPO Pose ID>  (70) 
94967

>  <fragmenstein_outcome>  (70) 
acceptable

>  <energy_score>  (70) 
-25.925417

>  <distance_score>  (70) 
0.659115

>  <fragmenstein_mode>  (70) 
expansion

>  <HIPPO Compound ID>  (70) 
47198

>  <name>  (70) 
MQYDCUPHEMHVPT-SSDOTTSWSA-N

>  <ref_pdb>  (70) 
z0211a

>  <ref_mols>  (70) 
z0211a,z0637a

>  <csv_name>  (70) 
RdRp_knitwork_green_site_rna_tunnel_pure_split4000_batch008.csv

>  <fragmenstein_runtime>  (70) 
4.409778

>  <tags>  (70) 
['Fragmenstein placed']

>  <original ID>  (70) 
MQYDCUPHEMHVPT-SSDOTTSWSA-N

>  <fragmenstein_error>  (70) 
None

>  <original SMILES>  (70) 
CCc1ncc(F)cc1NC(=O)NC[C@@H](C)O

>  <inchikey>  (70) 
MQYDCUPHEMHVPT-SSDOTTSWSA-N

>  <SLURM_JOB_NAME>  (70) 
BulkDock.place:Flavi_NS5_RdRp:RdRp_knitwork_green_site_rna_tunnel_pure_split4000_batch008

>  <scratch_subdir>  (70) 
/opt/xchem-fragalysis-2/maxwin/BulkDock/SCRATCH/217079/C47198-P102

>  <alias>  (70) 
None

>  <SLURM_JOB_ID>  (70) 
217079

>  <exports>  (70) 
['/opt/xchem-fragalysis-2/maxwin/BulkDock/OUTPUTS/RdRp_knitwork_green_site_rna_tunnel_pure_split4000_batch008_217079.sdf']

$$$$
94970
     RDKit          3D

 17 17  0  0  0  0  0  0  0  0999 V2000
  -25.8840  -30.0406  -16.5308 C   0  0  0  0  0  0  0  0  0  0  0  0
  -25.8536  -30.5849  -17.9482 C   0  0  0  0  0  0  0  0  0  0  0  0
  -27.0241  -30.1799  -18.8158 C   0  0  0  0  0  0  0  0  0  0  0  0
  -28.1972  -29.9108  -18.1815 N   0  0  0  0  0  0  0  0  0  0  0  0
  -29.2682  -29.6169  -18.9539 C   0  0  0  0  0  0  0  0  0  0  0  0
  -29.2079  -29.5154  -20.3289 C   0  0  0  0  0  0  0  0  0  0  0  0
  -30.2990  -29.2282  -21.0490 F   0  0  0  0  0  0  0  0  0  0  0  0
  -28.0050  -29.7559  -20.9684 C   0  0  0  0  0  0  0  0  0  0  0  0
  -26.9096  -30.1649  -20.2177 C   0  0  0  0  0  0  0  0  0  0  0  0
  -25.7796  -30.6871  -20.8492 N   0  0  0  0  0  0  0  0  0  0  0  0
  -25.4017  -30.7392  -22.3611 C   0  0  0  0  0  0  0  0  0  0  0  0
  -25.9317  -30.2947  -23.2701 O   0  0  0  0  0  0  0  0  0  0  0  0
  -24.1540  -31.6563  -22.2777 N   0  0  0  0  0  0  0  0  0  0  0  0
  -23.3819  -32.2735  -23.3194 C   0  0  0  0  0  0  0  0  0  0  0  0
  -21.9780  -32.6271  -22.8362 C   0  0  1  0  0  0  0  0  0  0  0  0
  -21.0824  -32.9991  -24.0012 C   0  0  0  0  0  0  0  0  0  0  0  0
  -21.3879  -31.5480  -22.1111 O   0  0  0  0  0  0  0  0  0  0  0  0
  1  2  1  0
  2  3  1  0
  3  4  2  0
  4  5  1  0
  5  6  2  0
  6  7  1  0
  6  8  1  0
  8  9  2  0
  9 10  1  0
 10 11  1  0
 11 12  2  0
 11 13  1  0
 13 14  1  0
 14 15  1  0
 15 16  1  6
 15 17  1  0
  9  3  1  0
M  END
>  <HIPPO Pose ID>  (71) 
94970

>  <fragmenstein_outcome>  (71) 
acceptable

>  <energy_score>  (71) 
-25.208856

>  <distance_score>  (71) 
0.908956

>  <fragmenstein_mode>  (71) 
expansion

>  <HIPPO Compound ID>  (71) 
47198

>  <name>  (71) 
MQYDCUPHEMHVPT-SSDOTTSWSA-N

>  <ref_pdb>  (71) 
z0637a

>  <ref_mols>  (71) 
z0211a,z0637a

>  <csv_name>  (71) 
RdRp_knitwork_green_site_rna_tunnel_pure_split4000_batch008.csv

>  <fragmenstein_runtime>  (71) 
2.98276

>  <tags>  (71) 
['Fragmenstein placed']

>  <original ID>  (71) 
MQYDCUPHEMHVPT-SSDOTTSWSA-N

>  <fragmenstein_error>  (71) 
None

>  <original SMILES>  (71) 
CCc1ncc(F)cc1NC(=O)NC[C@@H](C)O

>  <inchikey>  (71) 
MQYDCUPHEMHVPT-SSDOTTSWSA-N

>  <SLURM_JOB_NAME>  (71) 
BulkDock.place:Flavi_NS5_RdRp:RdRp_knitwork_green_site_rna_tunnel_pure_split4000_batch008

>  <scratch_subdir>  (71) 
/opt/xchem-fragalysis-2/maxwin/BulkDock/SCRATCH/217079/C47198-P151

>  <alias>  (71) 
None

>  <SLURM_JOB_ID>  (71) 
217079

>  <exports>  (71) 
['/opt/xchem-fragalysis-2/maxwin/BulkDock/OUTPUTS/RdRp_knitwork_green_site_rna_tunnel_pure_split4000_batch008_217079.sdf']

$$$$
94979
     RDKit          3D

 16 16  0  0  0  0  0  0  0  0999 V2000
  -21.0912  -32.9831  -23.5528 C   0  0  0  0  0  0  0  0  0  0  0  0
  -21.9196  -32.5831  -22.3412 C   0  0  1  0  0  0  0  0  0  0  0  0
  -21.1513  -31.6471  -21.5924 O   0  0  0  0  0  0  0  0  0  0  0  0
  -23.2422  -31.9916  -22.8077 C   0  0  0  0  0  0  0  0  0  0  0  0
  -24.1305  -31.5678  -21.7563 N   0  0  0  0  0  0  0  0  0  0  0  0
  -25.6244  -31.8919  -21.5153 C   0  0  0  0  0  0  0  0  0  0  0  0
  -26.3227  -32.5944  -22.0737 O   0  0  0  0  0  0  0  0  0  0  0  0
  -25.9166  -30.9005  -20.3532 N   0  0  0  0  0  0  0  0  0  0  0  0
  -27.1214  -30.5450  -19.7545 C   0  0  0  0  0  0  0  0  0  0  0  0
  -28.3038  -30.7541  -20.4597 C   0  0  0  0  0  0  0  0  0  0  0  0
  -29.5426  -30.4777  -19.9931 N   0  0  0  0  0  0  0  0  0  0  0  0
  -29.6054  -29.9904  -18.7414 C   0  0  0  0  0  0  0  0  0  0  0  0
  -28.4894  -29.7070  -17.9753 C   0  0  0  0  0  0  0  0  0  0  0  0
  -28.6518  -29.2376  -16.7309 F   0  0  0  0  0  0  0  0  0  0  0  0
  -27.2248  -29.9651  -18.4984 C   0  0  0  0  0  0  0  0  0  0  0  0
  -25.6946  -29.6582  -17.4376 Br  0  0  0  0  0  0  0  0  0  0  0  0
  2  1  1  6
  2  3  1  0
  2  4  1  0
  4  5  1  0
  5  6  1  0
  6  7  2  0
  6  8  1  0
  8  9  1  0
  9 10  2  0
 10 11  1  0
 11 12  2  0
 12 13  1  0
 13 14  1  0
 13 15  2  0
 15 16  1  0
 15  9  1  0
M  END
>  <HIPPO Pose ID>  (72) 
94979

>  <fragmenstein_outcome>  (72) 
acceptable

>  <energy_score>  (72) 
-17.276712

>  <distance_score>  (72) 
0.728862

>  <fragmenstein_mode>  (72) 
expansion

>  <HIPPO Compound ID>  (72) 
47254

>  <name>  (72) 
QPBOWHPMRFGDOC-RXMQYKEDSA-N

>  <ref_pdb>  (72) 
z0211a

>  <ref_mols>  (72) 
z0211a,z0637a

>  <csv_name>  (72) 
RdRp_knitwork_green_site_rna_tunnel_pure_split4000_batch008.csv

>  <fragmenstein_runtime>  (72) 
2.483046

>  <tags>  (72) 
['Fragmenstein placed']

>  <original ID>  (72) 
QPBOWHPMRFGDOC-RXMQYKEDSA-N

>  <fragmenstein_error>  (72) 
None

>  <original SMILES>  (72) 
C[C@@H](O)CNC(=O)Nc1cncc(F)c1Br

>  <inchikey>  (72) 
QPBOWHPMRFGDOC-RXMQYKEDSA-N

>  <SLURM_JOB_NAME>  (72) 
BulkDock.place:Flavi_NS5_RdRp:RdRp_knitwork_green_site_rna_tunnel_pure_split4000_batch008

>  <scratch_subdir>  (72) 
/opt/xchem-fragalysis-2/maxwin/BulkDock/SCRATCH/217079/C47254-P102

>  <alias>  (72) 
None

>  <SLURM_JOB_ID>  (72) 
217079

>  <exports>  (72) 
['/opt/xchem-fragalysis-2/maxwin/BulkDock/OUTPUTS/RdRp_knitwork_green_site_rna_tunnel_pure_split4000_batch008_217079.sdf']

$$$$
94992
     RDKit          3D

 16 16  0  0  0  0  0  0  0  0999 V2000
  -21.0640  -33.0822  -23.7222 C   0  0  0  0  0  0  0  0  0  0  0  0
  -22.1183  -32.8103  -22.6643 C   0  0  1  0  0  0  0  0  0  0  0  0
  -21.4956  -32.2748  -21.4966 O   0  0  0  0  0  0  0  0  0  0  0  0
  -23.1285  -31.8018  -23.1883 C   0  0  0  0  0  0  0  0  0  0  0  0
  -24.0763  -31.3856  -22.1901 N   0  0  0  0  0  0  0  0  0  0  0  0
  -25.3995  -30.5877  -22.3313 C   0  0  0  0  0  0  0  0  0  0  0  0
  -25.9457  -30.2235  -23.2663 O   0  0  0  0  0  0  0  0  0  0  0  0
  -25.8173  -30.5188  -20.8278 N   0  0  0  0  0  0  0  0  0  0  0  0
  -27.0039  -30.0797  -20.2393 C   0  0  0  0  0  0  0  0  0  0  0  0
  -28.1093  -29.7656  -21.0168 C   0  0  0  0  0  0  0  0  0  0  0  0
  -29.3518  -29.5457  -20.5262 N   0  0  0  0  0  0  0  0  0  0  0  0
  -29.4868  -29.6024  -19.1848 C   0  0  0  0  0  0  0  0  0  0  0  0
  -28.4320  -29.8040  -18.3190 C   0  0  0  0  0  0  0  0  0  0  0  0
  -28.6465  -29.7735  -16.9957 F   0  0  0  0  0  0  0  0  0  0  0  0
  -27.1712  -30.0466  -18.8539 C   0  0  0  0  0  0  0  0  0  0  0  0
  -25.7051  -30.3027  -17.6834 Br  0  0  0  0  0  0  0  0  0  0  0  0
  2  1  1  6
  2  3  1  0
  2  4  1  0
  4  5  1  0
  5  6  1  0
  6  7  2  0
  6  8  1  0
  8  9  1  0
  9 10  2  0
 10 11  1  0
 11 12  2  0
 12 13  1  0
 13 14  1  0
 13 15  2  0
 15 16  1  0
 15  9  1  0
M  END
>  <HIPPO Pose ID>  (73) 
94992

>  <fragmenstein_outcome>  (73) 
acceptable

>  <energy_score>  (73) 
-21.391583

>  <distance_score>  (73) 
0.663584

>  <fragmenstein_mode>  (73) 
expansion

>  <HIPPO Compound ID>  (73) 
47254

>  <name>  (73) 
QPBOWHPMRFGDOC-RXMQYKEDSA-N

>  <ref_pdb>  (73) 
z0637a

>  <ref_mols>  (73) 
z0211a,z0637a

>  <csv_name>  (73) 
RdRp_knitwork_green_site_rna_tunnel_pure_split4000_batch008.csv

>  <fragmenstein_runtime>  (73) 
2.52711

>  <tags>  (73) 
['Fragmenstein placed']

>  <original ID>  (73) 
QPBOWHPMRFGDOC-RXMQYKEDSA-N

>  <fragmenstein_error>  (73) 
None

>  <original SMILES>  (73) 
C[C@@H](O)CNC(=O)Nc1cncc(F)c1Br

>  <inchikey>  (73) 
QPBOWHPMRFGDOC-RXMQYKEDSA-N

>  <SLURM_JOB_NAME>  (73) 
BulkDock.place:Flavi_NS5_RdRp:RdRp_knitwork_green_site_rna_tunnel_pure_split4000_batch008

>  <scratch_subdir>  (73) 
/opt/xchem-fragalysis-2/maxwin/BulkDock/SCRATCH/217079/C47254-P151

>  <alias>  (73) 
None

>  <SLURM_JOB_ID>  (73) 
217079

>  <exports>  (73) 
['/opt/xchem-fragalysis-2/maxwin/BulkDock/OUTPUTS/RdRp_knitwork_green_site_rna_tunnel_pure_split4000_batch008_217079.sdf']

$$$$
94994
     RDKit          3D

 16 16  0  0  0  0  0  0  0  0999 V2000
  -21.1271  -32.9319  -23.7751 C   0  0  0  0  0  0  0  0  0  0  0  0
  -21.8689  -32.0929  -22.7474 C   0  0  2  0  0  0  0  0  0  0  0  0
  -21.7129  -32.6939  -21.4587 O   0  0  0  0  0  0  0  0  0  0  0  0
  -23.3493  -32.0059  -23.1031 C   0  0  0  0  0  0  0  0  0  0  0  0
  -24.1587  -31.4202  -22.0709 N   0  0  0  0  0  0  0  0  0  0  0  0
  -25.5906  -30.8370  -22.1305 C   0  0  0  0  0  0  0  0  0  0  0  0
  -26.2820  -30.6776  -23.0186 O   0  0  0  0  0  0  0  0  0  0  0  0
  -25.8450  -30.6287  -20.6099 N   0  0  0  0  0  0  0  0  0  0  0  0
  -27.0078  -30.2827  -19.9318 C   0  0  0  0  0  0  0  0  0  0  0  0
  -28.2259  -30.2044  -20.6142 C   0  0  0  0  0  0  0  0  0  0  0  0
  -29.4277  -30.0457  -20.0139 N   0  0  0  0  0  0  0  0  0  0  0  0
  -29.3987  -29.9183  -18.6737 C   0  0  0  0  0  0  0  0  0  0  0  0
  -30.5680  -29.8577  -18.0236 F   0  0  0  0  0  0  0  0  0  0  0  0
  -28.2296  -29.8748  -17.9304 C   0  0  0  0  0  0  0  0  0  0  0  0
  -28.2788  -29.7105  -16.6019 F   0  0  0  0  0  0  0  0  0  0  0  0
  -27.0074  -30.0767  -18.5614 C   0  0  0  0  0  0  0  0  0  0  0  0
  2  1  1  6
  2  3  1  0
  2  4  1  0
  4  5  1  0
  5  6  1  0
  6  7  2  0
  6  8  1  0
  8  9  1  0
  9 10  2  0
 10 11  1  0
 11 12  2  0
 12 13  1  0
 12 14  1  0
 14 15  1  0
 14 16  2  0
 16  9  1  0
M  END
>  <HIPPO Pose ID>  (74) 
94994

>  <fragmenstein_outcome>  (74) 
acceptable

>  <energy_score>  (74) 
-11.92514

>  <distance_score>  (74) 
0.523278

>  <fragmenstein_mode>  (74) 
expansion

>  <HIPPO Compound ID>  (74) 
47264

>  <name>  (74) 
RFEJTTKFVGAPNB-YFKPBYRVSA-N

>  <ref_pdb>  (74) 
z0211a

>  <ref_mols>  (74) 
z0211a,z0637a

>  <csv_name>  (74) 
RdRp_knitwork_green_site_rna_tunnel_pure_split4000_batch008.csv

>  <fragmenstein_runtime>  (74) 
2.191022

>  <tags>  (74) 
['Fragmenstein placed']

>  <original ID>  (74) 
RFEJTTKFVGAPNB-YFKPBYRVSA-N

>  <fragmenstein_error>  (74) 
None

>  <original SMILES>  (74) 
C[C@H](O)CNC(=O)Nc1cnc(F)c(F)c1

>  <inchikey>  (74) 
RFEJTTKFVGAPNB-YFKPBYRVSA-N

>  <SLURM_JOB_NAME>  (74) 
BulkDock.place:Flavi_NS5_RdRp:RdRp_knitwork_green_site_rna_tunnel_pure_split4000_batch008

>  <scratch_subdir>  (74) 
/opt/xchem-fragalysis-2/maxwin/BulkDock/SCRATCH/217079/C47264-P102

>  <alias>  (74) 
None

>  <SLURM_JOB_ID>  (74) 
217079

>  <exports>  (74) 
['/opt/xchem-fragalysis-2/maxwin/BulkDock/OUTPUTS/RdRp_knitwork_green_site_rna_tunnel_pure_split4000_batch008_217079.sdf']

$$$$
94997
     RDKit          3D

 16 16  0  0  0  0  0  0  0  0999 V2000
  -21.1391  -33.0211  -24.0281 C   0  0  0  0  0  0  0  0  0  0  0  0
  -21.8921  -32.1143  -23.0703 C   0  0  2  0  0  0  0  0  0  0  0  0
  -21.5954  -32.5138  -21.7254 O   0  0  0  0  0  0  0  0  0  0  0  0
  -23.3946  -32.2204  -23.3241 C   0  0  0  0  0  0  0  0  0  0  0  0
  -24.1637  -31.5947  -22.2866 N   0  0  0  0  0  0  0  0  0  0  0  0
  -25.4422  -30.7241  -22.3714 C   0  0  0  0  0  0  0  0  0  0  0  0
  -26.0067  -30.3287  -23.2815 O   0  0  0  0  0  0  0  0  0  0  0  0
  -25.7891  -30.6334  -20.8528 N   0  0  0  0  0  0  0  0  0  0  0  0
  -26.9173  -30.1307  -20.2165 C   0  0  0  0  0  0  0  0  0  0  0  0
  -28.0406  -29.7226  -20.9304 C   0  0  0  0  0  0  0  0  0  0  0  0
  -29.2454  -29.4734  -20.3668 N   0  0  0  0  0  0  0  0  0  0  0  0
  -29.3057  -29.5958  -19.0237 C   0  0  0  0  0  0  0  0  0  0  0  0
  -30.4924  -29.4316  -18.4311 F   0  0  0  0  0  0  0  0  0  0  0  0
  -28.2152  -29.8866  -18.2262 C   0  0  0  0  0  0  0  0  0  0  0  0
  -28.3376  -29.9236  -16.8921 F   0  0  0  0  0  0  0  0  0  0  0  0
  -27.0004  -30.1801  -18.8284 C   0  0  0  0  0  0  0  0  0  0  0  0
  2  1  1  6
  2  3  1  0
  2  4  1  0
  4  5  1  0
  5  6  1  0
  6  7  2  0
  6  8  1  0
  8  9  1  0
  9 10  2  0
 10 11  1  0
 11 12  2  0
 12 13  1  0
 12 14  1  0
 14 15  1  0
 14 16  2  0
 16  9  1  0
M  END
>  <HIPPO Pose ID>  (75) 
94997

>  <fragmenstein_outcome>  (75) 
acceptable

>  <energy_score>  (75) 
-11.444424

>  <distance_score>  (75) 
0.625008

>  <fragmenstein_mode>  (75) 
expansion

>  <HIPPO Compound ID>  (75) 
47264

>  <name>  (75) 
RFEJTTKFVGAPNB-YFKPBYRVSA-N

>  <ref_pdb>  (75) 
z0637a

>  <ref_mols>  (75) 
z0211a,z0637a

>  <csv_name>  (75) 
RdRp_knitwork_green_site_rna_tunnel_pure_split4000_batch008.csv

>  <fragmenstein_runtime>  (75) 
2.035362

>  <tags>  (75) 
['Fragmenstein placed']

>  <original ID>  (75) 
RFEJTTKFVGAPNB-YFKPBYRVSA-N

>  <fragmenstein_error>  (75) 
None

>  <original SMILES>  (75) 
C[C@H](O)CNC(=O)Nc1cnc(F)c(F)c1

>  <inchikey>  (75) 
RFEJTTKFVGAPNB-YFKPBYRVSA-N

>  <SLURM_JOB_NAME>  (75) 
BulkDock.place:Flavi_NS5_RdRp:RdRp_knitwork_green_site_rna_tunnel_pure_split4000_batch008

>  <scratch_subdir>  (75) 
/opt/xchem-fragalysis-2/maxwin/BulkDock/SCRATCH/217079/C47264-P151

>  <alias>  (75) 
None

>  <SLURM_JOB_ID>  (75) 
217079

>  <exports>  (75) 
['/opt/xchem-fragalysis-2/maxwin/BulkDock/OUTPUTS/RdRp_knitwork_green_site_rna_tunnel_pure_split4000_batch008_217079.sdf']

$$$$
95009
     RDKit          3D

 17 17  0  0  0  0  0  0  0  0999 V2000
  -25.1474  -30.1381  -16.4231 C   0  0  0  0  0  0  0  0  0  0  0  0
  -25.2406  -30.4235  -17.9181 C   0  0  0  0  0  0  0  0  0  0  0  0
  -26.5583  -30.1329  -18.5916 C   0  0  0  0  0  0  0  0  0  0  0  0
  -27.6812  -29.8468  -17.8250 C   0  0  0  0  0  0  0  0  0  0  0  0
  -28.9135  -29.7122  -18.4243 C   0  0  0  0  0  0  0  0  0  0  0  0
  -30.2408  -29.5913  -17.3721 Cl  0  0  0  0  0  0  0  0  0  0  0  0
  -28.9884  -29.7438  -19.8019 C   0  0  0  0  0  0  0  0  0  0  0  0
  -27.9081  -29.9537  -20.5959 N   0  0  0  0  0  0  0  0  0  0  0  0
  -26.7285  -30.2034  -19.9851 C   0  0  0  0  0  0  0  0  0  0  0  0
  -25.6772  -30.7076  -20.7332 N   0  0  0  0  0  0  0  0  0  0  0  0
  -25.4664  -30.7495  -22.2713 C   0  0  0  0  0  0  0  0  0  0  0  0
  -26.0956  -30.3069  -23.1146 O   0  0  0  0  0  0  0  0  0  0  0  0
  -24.2082  -31.6546  -22.3281 N   0  0  0  0  0  0  0  0  0  0  0  0
  -23.5487  -32.2593  -23.4488 C   0  0  0  0  0  0  0  0  0  0  0  0
  -22.0301  -32.1026  -23.3302 C   0  0  2  0  0  0  0  0  0  0  0  0
  -21.3293  -33.0214  -24.3140 C   0  0  0  0  0  0  0  0  0  0  0  0
  -21.6143  -32.4550  -22.0024 O   0  0  0  0  0  0  0  0  0  0  0  0
  1  2  1  0
  2  3  1  0
  3  4  2  0
  4  5  1  0
  5  6  1  0
  5  7  2  0
  7  8  1  0
  8  9  2  0
  9 10  1  0
 10 11  1  0
 11 12  2  0
 11 13  1  0
 13 14  1  0
 14 15  1  0
 15 16  1  6
 15 17  1  0
  9  3  1  0
M  END
>  <HIPPO Pose ID>  (76) 
95009

>  <fragmenstein_outcome>  (76) 
acceptable

>  <energy_score>  (76) 
-13.179741

>  <distance_score>  (76) 
0.989858

>  <fragmenstein_mode>  (76) 
expansion

>  <HIPPO Compound ID>  (76) 
47305

>  <name>  (76) 
XWYYZRTVIUFZOC-ZETCQYMHSA-N

>  <ref_pdb>  (76) 
z0637a

>  <ref_mols>  (76) 
z0211a,z0637a

>  <csv_name>  (76) 
RdRp_knitwork_green_site_rna_tunnel_pure_split4000_batch008.csv

>  <fragmenstein_runtime>  (76) 
4.248345

>  <tags>  (76) 
['Fragmenstein placed']

>  <original ID>  (76) 
XWYYZRTVIUFZOC-ZETCQYMHSA-N

>  <fragmenstein_error>  (76) 
None

>  <original SMILES>  (76) 
CCc1cc(Cl)cnc1NC(=O)NC[C@H](C)O

>  <inchikey>  (76) 
XWYYZRTVIUFZOC-ZETCQYMHSA-N

>  <SLURM_JOB_NAME>  (76) 
BulkDock.place:Flavi_NS5_RdRp:RdRp_knitwork_green_site_rna_tunnel_pure_split4000_batch008

>  <scratch_subdir>  (76) 
/opt/xchem-fragalysis-2/maxwin/BulkDock/SCRATCH/217079/C47305-P151

>  <alias>  (76) 
None

>  <SLURM_JOB_ID>  (76) 
217079

>  <exports>  (76) 
['/opt/xchem-fragalysis-2/maxwin/BulkDock/OUTPUTS/RdRp_knitwork_green_site_rna_tunnel_pure_split4000_batch008_217079.sdf']

$$$$
95019
     RDKit          3D

 16 16  0  0  0  0  0  0  0  0999 V2000
  -26.0371  -30.1846  -16.2768 C   0  0  0  0  0  0  0  0  0  0  0  0
  -25.6075  -30.4732  -18.0077 S   0  0  0  0  0  0  0  0  0  0  0  0
  -27.1078  -30.1260  -18.9336 C   0  0  0  0  0  0  0  0  0  0  0  0
  -28.3502  -29.8894  -18.3453 C   0  0  0  0  0  0  0  0  0  0  0  0
  -29.4525  -29.6207  -19.1483 C   0  0  0  0  0  0  0  0  0  0  0  0
  -29.2710  -29.5317  -20.5152 C   0  0  0  0  0  0  0  0  0  0  0  0
  -28.0917  -29.7505  -21.1265 N   0  0  0  0  0  0  0  0  0  0  0  0
  -27.0506  -30.0982  -20.3453 C   0  0  0  0  0  0  0  0  0  0  0  0
  -25.9281  -30.6430  -20.9517 N   0  0  0  0  0  0  0  0  0  0  0  0
  -25.5042  -30.6696  -22.4490 C   0  0  0  0  0  0  0  0  0  0  0  0
  -25.9873  -30.1811  -23.3624 O   0  0  0  0  0  0  0  0  0  0  0  0
  -24.2920  -31.6385  -22.3511 N   0  0  0  0  0  0  0  0  0  0  0  0
  -23.5100  -32.2579  -23.3851 C   0  0  0  0  0  0  0  0  0  0  0  0
  -22.0069  -32.0075  -23.2416 C   0  0  2  0  0  0  0  0  0  0  0  0
  -21.2406  -33.0425  -24.0476 C   0  0  0  0  0  0  0  0  0  0  0  0
  -21.6047  -32.1304  -21.8730 O   0  0  0  0  0  0  0  0  0  0  0  0
  1  2  1  0
  2  3  1  0
  3  4  2  0
  4  5  1  0
  5  6  2  0
  6  7  1  0
  7  8  2  0
  8  9  1  0
  9 10  1  0
 10 11  2  0
 10 12  1  0
 12 13  1  0
 13 14  1  0
 14 15  1  6
 14 16  1  0
  8  3  1  0
M  END
>  <HIPPO Pose ID>  (77) 
95019

>  <fragmenstein_outcome>  (77) 
acceptable

>  <energy_score>  (77) 
-1.014299

>  <distance_score>  (77) 
0.797271

>  <fragmenstein_mode>  (77) 
expansion

>  <HIPPO Compound ID>  (77) 
47384

>  <name>  (77) 
ATMJHCHWXZBLLP-ZETCQYMHSA-N

>  <ref_pdb>  (77) 
z0637a

>  <ref_mols>  (77) 
z0211a,z0637a

>  <csv_name>  (77) 
RdRp_knitwork_green_site_rna_tunnel_pure_split4000_batch008.csv

>  <fragmenstein_runtime>  (77) 
3.641551

>  <tags>  (77) 
['Fragmenstein placed']

>  <original ID>  (77) 
ATMJHCHWXZBLLP-ZETCQYMHSA-N

>  <fragmenstein_error>  (77) 
None

>  <original SMILES>  (77) 
CSc1cccnc1NC(=O)NC[C@H](C)O

>  <inchikey>  (77) 
ATMJHCHWXZBLLP-ZETCQYMHSA-N

>  <SLURM_JOB_NAME>  (77) 
BulkDock.place:Flavi_NS5_RdRp:RdRp_knitwork_green_site_rna_tunnel_pure_split4000_batch008

>  <scratch_subdir>  (77) 
/opt/xchem-fragalysis-2/maxwin/BulkDock/SCRATCH/217079/C47384-P151

>  <alias>  (77) 
None

>  <SLURM_JOB_ID>  (77) 
217079

>  <exports>  (77) 
['/opt/xchem-fragalysis-2/maxwin/BulkDock/OUTPUTS/RdRp_knitwork_green_site_rna_tunnel_pure_split4000_batch008_217079.sdf']

$$$$
95028
     RDKit          3D

 15 15  0  0  0  0  0  0  0  0999 V2000
  -21.8088  -33.6334  -22.7994 C   0  0  0  0  0  0  0  0  0  0  0  0
  -22.1351  -32.1976  -23.1522 C   0  0  2  0  0  0  0  0  0  0  0  0
  -21.6619  -31.3687  -22.0958 O   0  0  0  0  0  0  0  0  0  0  0  0
  -23.6327  -31.9878  -23.3953 C   0  0  0  0  0  0  0  0  0  0  0  0
  -24.3690  -31.4584  -22.2751 N   0  0  0  0  0  0  0  0  0  0  0  0
  -25.7627  -30.7748  -22.2207 C   0  0  0  0  0  0  0  0  0  0  0  0
  -26.4691  -30.4772  -23.0629 O   0  0  0  0  0  0  0  0  0  0  0  0
  -25.9525  -30.7012  -20.6755 N   0  0  0  0  0  0  0  0  0  0  0  0
  -27.0689  -30.3393  -19.9183 C   0  0  0  0  0  0  0  0  0  0  0  0
  -28.3149  -30.2612  -20.5384 C   0  0  0  0  0  0  0  0  0  0  0  0
  -29.4584  -30.0362  -19.7803 C   0  0  0  0  0  0  0  0  0  0  0  0
  -29.3108  -29.8454  -18.4181 C   0  0  0  0  0  0  0  0  0  0  0  0
  -28.1188  -29.8223  -17.7867 N   0  0  0  0  0  0  0  0  0  0  0  0
  -27.0319  -30.0843  -18.5530 C   0  0  0  0  0  0  0  0  0  0  0  0
  -25.5623  -30.0470  -17.6714 Cl  0  0  0  0  0  0  0  0  0  0  0  0
  2  1  1  1
  2  3  1  0
  2  4  1  0
  4  5  1  0
  5  6  1  0
  6  7  2  0
  6  8  1  0
  8  9  1  0
  9 10  2  0
 10 11  1  0
 11 12  2  0
 12 13  1  0
 13 14  2  0
 14 15  1  0
 14  9  1  0
M  END
>  <HIPPO Pose ID>  (78) 
95028

>  <fragmenstein_outcome>  (78) 
acceptable

>  <energy_score>  (78) 
-11.196739

>  <distance_score>  (78) 
0.674416

>  <fragmenstein_mode>  (78) 
expansion

>  <HIPPO Compound ID>  (78) 
47422

>  <name>  (78) 
KTCJQLOOWQRCDZ-LURJTMIESA-N

>  <ref_pdb>  (78) 
z0211a

>  <ref_mols>  (78) 
z0211a,z0637a

>  <csv_name>  (78) 
RdRp_knitwork_green_site_rna_tunnel_pure_split4000_batch008.csv

>  <fragmenstein_runtime>  (78) 
3.099335

>  <tags>  (78) 
['Fragmenstein placed']

>  <original ID>  (78) 
KTCJQLOOWQRCDZ-LURJTMIESA-N

>  <fragmenstein_error>  (78) 
None

>  <original SMILES>  (78) 
C[C@H](O)CNC(=O)Nc1cccnc1Cl

>  <inchikey>  (78) 
KTCJQLOOWQRCDZ-LURJTMIESA-N

>  <SLURM_JOB_NAME>  (78) 
BulkDock.place:Flavi_NS5_RdRp:RdRp_knitwork_green_site_rna_tunnel_pure_split4000_batch008

>  <scratch_subdir>  (78) 
/opt/xchem-fragalysis-2/maxwin/BulkDock/SCRATCH/217079/C47422-P102

>  <alias>  (78) 
None

>  <SLURM_JOB_ID>  (78) 
217079

>  <exports>  (78) 
['/opt/xchem-fragalysis-2/maxwin/BulkDock/OUTPUTS/RdRp_knitwork_green_site_rna_tunnel_pure_split4000_batch008_217079.sdf']

$$$$
95029
     RDKit          3D

 15 17  0  0  0  0  0  0  0  0999 V2000
  -27.8431  -30.3512  -15.8373 C   0  0  0  0  0  0  0  0  0  0  0  0
  -26.7393  -29.7020  -16.3719 C   0  0  0  0  0  0  0  0  0  0  0  0
  -26.7227  -29.3653  -17.7261 C   0  0  0  0  0  0  0  0  0  0  0  0
  -27.8018  -29.6910  -18.5876 C   0  0  0  0  0  0  0  0  0  0  0  0
  -27.8835  -29.3890  -19.9678 C   0  0  0  0  0  0  0  0  0  0  0  0
  -26.9055  -28.5324  -20.6534 C   0  0  0  0  0  0  0  0  0  0  0  0
  -26.3411  -27.4450  -20.1504 N   0  0  0  0  0  0  0  0  0  0  0  0
  -25.6023  -26.8050  -21.1244 C   0  0  0  0  0  0  0  0  0  0  0  0
  -25.5131  -27.4630  -22.3298 C   0  0  0  0  0  0  0  0  0  0  0  0
  -26.4145  -28.9208  -22.2605 S   0  0  0  0  0  0  0  0  0  0  0  0
  -28.9184  -29.7719  -20.7686 N   0  0  0  0  0  0  0  0  0  0  0  0
  -29.9320  -30.4372  -20.1961 C   0  0  0  0  0  0  0  0  0  0  0  0
  -29.9621  -30.7584  -18.8547 C   0  0  0  0  0  0  0  0  0  0  0  0
  -28.8967  -30.3829  -18.0331 C   0  0  0  0  0  0  0  0  0  0  0  0
  -28.9138  -30.6901  -16.6626 C   0  0  0  0  0  0  0  0  0  0  0  0
  1  2  2  0
  2  3  1  0
  3  4  2  0
  4  5  1  0
  5  6  1  0
  6  7  2  0
  7  8  1  0
  8  9  2  0
  9 10  1  0
  5 11  2  0
 11 12  1  0
 12 13  2  0
 13 14  1  0
 14 15  2  0
 15  1  1  0
 14  4  1  0
 10  6  1  0
M  END
>  <HIPPO Pose ID>  (79) 
95029

>  <fragmenstein_outcome>  (79) 
acceptable

>  <energy_score>  (79) 
-58.072942

>  <distance_score>  (79) 
0.693014

>  <fragmenstein_mode>  (79) 
expansion

>  <HIPPO Compound ID>  (79) 
30341

>  <name>  (79) 
RYINUJYFPYCEFQ-UHFFFAOYSA-N

>  <ref_pdb>  (79) 
z0496a

>  <ref_mols>  (79) 
z0111a,z0496a

>  <csv_name>  (79) 
RdRp_knitwork_green_site_rna_tunnel_pure_split4000_batch005.csv

>  <fragmenstein_runtime>  (79) 
1.842096

>  <tags>  (79) 
['Fragmenstein placed']

>  <original ID>  (79) 
RYINUJYFPYCEFQ-UHFFFAOYSA-N

>  <fragmenstein_error>  (79) 
None

>  <original SMILES>  (79) 
c1ccc2c(-c3nccs3)nccc2c1

>  <inchikey>  (79) 
RYINUJYFPYCEFQ-UHFFFAOYSA-N

>  <SLURM_JOB_NAME>  (79) 
BulkDock.place:Flavi_NS5_RdRp:RdRp_knitwork_green_site_rna_tunnel_pure_split4000_batch005

>  <scratch_subdir>  (79) 
/opt/xchem-fragalysis-2/maxwin/BulkDock/SCRATCH/217076/C30341-P136

>  <alias>  (79) 
None

>  <SLURM_JOB_ID>  (79) 
217076

>  <exports>  (79) 
['/opt/xchem-fragalysis-2/maxwin/BulkDock/OUTPUTS/RdRp_knitwork_green_site_rna_tunnel_pure_split4000_batch005_217076.sdf']

$$$$
95032
     RDKit          3D

 15 15  0  0  0  0  0  0  0  0999 V2000
  -21.2183  -33.0326  -23.9405 C   0  0  0  0  0  0  0  0  0  0  0  0
  -21.9666  -31.9921  -23.1239 C   0  0  2  0  0  0  0  0  0  0  0  0
  -21.5473  -32.1150  -21.7608 O   0  0  0  0  0  0  0  0  0  0  0  0
  -23.4723  -32.2349  -23.2431 C   0  0  0  0  0  0  0  0  0  0  0  0
  -24.2443  -31.6167  -22.1980 N   0  0  0  0  0  0  0  0  0  0  0  0
  -25.4728  -30.6707  -22.2805 C   0  0  0  0  0  0  0  0  0  0  0  0
  -25.9829  -30.2001  -23.1884 O   0  0  0  0  0  0  0  0  0  0  0  0
  -25.8679  -30.6346  -20.7703 N   0  0  0  0  0  0  0  0  0  0  0  0
  -26.9939  -30.0988  -20.1436 C   0  0  0  0  0  0  0  0  0  0  0  0
  -28.1202  -29.7536  -20.8776 C   0  0  0  0  0  0  0  0  0  0  0  0
  -29.3228  -29.5211  -20.2151 C   0  0  0  0  0  0  0  0  0  0  0  0
  -29.3398  -29.5762  -18.8301 C   0  0  0  0  0  0  0  0  0  0  0  0
  -28.2461  -29.7965  -18.0763 N   0  0  0  0  0  0  0  0  0  0  0  0
  -27.1074  -30.0621  -18.7533 C   0  0  0  0  0  0  0  0  0  0  0  0
  -25.7583  -30.3462  -17.7291 Cl  0  0  0  0  0  0  0  0  0  0  0  0
  2  1  1  6
  2  3  1  0
  2  4  1  0
  4  5  1  0
  5  6  1  0
  6  7  2  0
  6  8  1  0
  8  9  1  0
  9 10  2  0
 10 11  1  0
 11 12  2  0
 12 13  1  0
 13 14  2  0
 14 15  1  0
 14  9  1  0
M  END
>  <HIPPO Pose ID>  (80) 
95032

>  <fragmenstein_outcome>  (80) 
acceptable

>  <energy_score>  (80) 
-11.519226

>  <distance_score>  (80) 
0.591168

>  <fragmenstein_mode>  (80) 
expansion

>  <HIPPO Compound ID>  (80) 
47422

>  <name>  (80) 
KTCJQLOOWQRCDZ-LURJTMIESA-N

>  <ref_pdb>  (80) 
z0637a

>  <ref_mols>  (80) 
z0211a,z0637a

>  <csv_name>  (80) 
RdRp_knitwork_green_site_rna_tunnel_pure_split4000_batch008.csv

>  <fragmenstein_runtime>  (80) 
3.575105

>  <tags>  (80) 
['Fragmenstein placed']

>  <original ID>  (80) 
KTCJQLOOWQRCDZ-LURJTMIESA-N

>  <fragmenstein_error>  (80) 
None

>  <original SMILES>  (80) 
C[C@H](O)CNC(=O)Nc1cccnc1Cl

>  <inchikey>  (80) 
KTCJQLOOWQRCDZ-LURJTMIESA-N

>  <SLURM_JOB_NAME>  (80) 
BulkDock.place:Flavi_NS5_RdRp:RdRp_knitwork_green_site_rna_tunnel_pure_split4000_batch008

>  <scratch_subdir>  (80) 
/opt/xchem-fragalysis-2/maxwin/BulkDock/SCRATCH/217079/C47422-P151

>  <alias>  (80) 
None

>  <SLURM_JOB_ID>  (80) 
217079

>  <exports>  (80) 
['/opt/xchem-fragalysis-2/maxwin/BulkDock/OUTPUTS/RdRp_knitwork_green_site_rna_tunnel_pure_split4000_batch008_217079.sdf']

$$$$
95043
     RDKit          3D

 16 16  0  0  0  0  0  0  0  0999 V2000
  -25.9339  -29.8778  -17.4407 C   0  0  0  0  0  0  0  0  0  0  0  0
  -27.0235  -29.9939  -18.4607 C   0  0  0  0  0  0  0  0  0  0  0  0
  -26.7786  -30.4782  -19.7489 C   0  0  0  0  0  0  0  0  0  0  0  0
  -25.5206  -30.9768  -20.1020 N   0  0  0  0  0  0  0  0  0  0  0  0
  -25.0977  -31.9015  -21.2819 C   0  0  0  0  0  0  0  0  0  0  0  0
  -25.7089  -32.3086  -22.1530 O   0  0  0  0  0  0  0  0  0  0  0  0
  -23.5962  -32.0866  -20.9384 N   0  0  0  0  0  0  0  0  0  0  0  0
  -22.5861  -32.8994  -21.5720 C   0  0  0  0  0  0  0  0  0  0  0  0
  -22.0413  -32.2034  -22.8223 C   0  0  2  0  0  0  0  0  0  0  0  0
  -21.2770  -33.1550  -23.7182 C   0  0  0  0  0  0  0  0  0  0  0  0
  -21.1243  -31.1914  -22.4097 O   0  0  0  0  0  0  0  0  0  0  0  0
  -27.8154  -30.5274  -20.6822 C   0  0  0  0  0  0  0  0  0  0  0  0
  -29.0863  -30.1664  -20.2837 C   0  0  0  0  0  0  0  0  0  0  0  0
  -29.3871  -29.8192  -19.0253 N   0  0  0  0  0  0  0  0  0  0  0  0
  -28.3603  -29.7476  -18.1540 C   0  0  0  0  0  0  0  0  0  0  0  0
  -28.9097  -29.4457  -16.5541 Cl  0  0  0  0  0  0  0  0  0  0  0  0
  1  2  1  0
  2  3  2  0
  3  4  1  0
  4  5  1  0
  5  6  2  0
  5  7  1  0
  7  8  1  0
  8  9  1  0
  9 10  1  6
  9 11  1  0
  3 12  1  0
 12 13  2  0
 13 14  1  0
 14 15  2  0
 15 16  1  0
 15  2  1  0
M  END
>  <HIPPO Pose ID>  (81) 
95043

>  <fragmenstein_outcome>  (81) 
acceptable

>  <energy_score>  (81) 
-24.871921

>  <distance_score>  (81) 
0.888808

>  <fragmenstein_mode>  (81) 
expansion

>  <HIPPO Compound ID>  (81) 
47445

>  <name>  (81) 
RCINSAVLQDUDFZ-LURJTMIESA-N

>  <ref_pdb>  (81) 
z0211a

>  <ref_mols>  (81) 
z0211a,z0637a

>  <csv_name>  (81) 
RdRp_knitwork_green_site_rna_tunnel_pure_split4000_batch008.csv

>  <fragmenstein_runtime>  (81) 
3.647707

>  <tags>  (81) 
['Fragmenstein placed']

>  <original ID>  (81) 
RCINSAVLQDUDFZ-LURJTMIESA-N

>  <fragmenstein_error>  (81) 
None

>  <original SMILES>  (81) 
Cc1c(NC(=O)NC[C@H](C)O)ccnc1Cl

>  <inchikey>  (81) 
RCINSAVLQDUDFZ-LURJTMIESA-N

>  <SLURM_JOB_NAME>  (81) 
BulkDock.place:Flavi_NS5_RdRp:RdRp_knitwork_green_site_rna_tunnel_pure_split4000_batch008

>  <scratch_subdir>  (81) 
/opt/xchem-fragalysis-2/maxwin/BulkDock/SCRATCH/217079/C47445-P102

>  <alias>  (81) 
None

>  <SLURM_JOB_ID>  (81) 
217079

>  <exports>  (81) 
['/opt/xchem-fragalysis-2/maxwin/BulkDock/OUTPUTS/RdRp_knitwork_green_site_rna_tunnel_pure_split4000_batch008_217079.sdf']

$$$$
95046
     RDKit          3D

 16 16  0  0  0  0  0  0  0  0999 V2000
  -25.9787  -30.2952  -17.9468 C   0  0  0  0  0  0  0  0  0  0  0  0
  -27.1421  -29.9936  -18.8428 C   0  0  0  0  0  0  0  0  0  0  0  0
  -27.0230  -30.0261  -20.2412 C   0  0  0  0  0  0  0  0  0  0  0  0
  -25.8893  -30.5711  -20.8524 N   0  0  0  0  0  0  0  0  0  0  0  0
  -25.5001  -30.6638  -22.3659 C   0  0  0  0  0  0  0  0  0  0  0  0
  -26.0224  -30.2388  -23.2901 O   0  0  0  0  0  0  0  0  0  0  0  0
  -24.2580  -31.5854  -22.2514 N   0  0  0  0  0  0  0  0  0  0  0  0
  -23.4823  -32.2334  -23.2729 C   0  0  0  0  0  0  0  0  0  0  0  0
  -21.9807  -32.0507  -23.0587 C   0  0  2  0  0  0  0  0  0  0  0  0
  -21.2075  -33.0032  -23.9534 C   0  0  0  0  0  0  0  0  0  0  0  0
  -21.6616  -32.3469  -21.6936 O   0  0  0  0  0  0  0  0  0  0  0  0
  -28.1005  -29.6546  -21.0361 C   0  0  0  0  0  0  0  0  0  0  0  0
  -29.3132  -29.4107  -20.4298 C   0  0  0  0  0  0  0  0  0  0  0  0
  -29.4943  -29.4475  -19.1015 N   0  0  0  0  0  0  0  0  0  0  0  0
  -28.4101  -29.6997  -18.3433 C   0  0  0  0  0  0  0  0  0  0  0  0
  -28.7826  -29.6140  -16.6649 Cl  0  0  0  0  0  0  0  0  0  0  0  0
  1  2  1  0
  2  3  2  0
  3  4  1  0
  4  5  1  0
  5  6  2  0
  5  7  1  0
  7  8  1  0
  8  9  1  0
  9 10  1  6
  9 11  1  0
  3 12  1  0
 12 13  2  0
 13 14  1  0
 14 15  2  0
 15 16  1  0
 15  2  1  0
M  END
>  <HIPPO Pose ID>  (82) 
95046

>  <fragmenstein_outcome>  (82) 
acceptable

>  <energy_score>  (82) 
-25.116314

>  <distance_score>  (82) 
0.766431

>  <fragmenstein_mode>  (82) 
expansion

>  <HIPPO Compound ID>  (82) 
47445

>  <name>  (82) 
RCINSAVLQDUDFZ-LURJTMIESA-N

>  <ref_pdb>  (82) 
z0637a

>  <ref_mols>  (82) 
z0211a,z0637a

>  <csv_name>  (82) 
RdRp_knitwork_green_site_rna_tunnel_pure_split4000_batch008.csv

>  <fragmenstein_runtime>  (82) 
3.067081

>  <tags>  (82) 
['Fragmenstein placed']

>  <original ID>  (82) 
RCINSAVLQDUDFZ-LURJTMIESA-N

>  <fragmenstein_error>  (82) 
None

>  <original SMILES>  (82) 
Cc1c(NC(=O)NC[C@H](C)O)ccnc1Cl

>  <inchikey>  (82) 
RCINSAVLQDUDFZ-LURJTMIESA-N

>  <SLURM_JOB_NAME>  (82) 
BulkDock.place:Flavi_NS5_RdRp:RdRp_knitwork_green_site_rna_tunnel_pure_split4000_batch008

>  <scratch_subdir>  (82) 
/opt/xchem-fragalysis-2/maxwin/BulkDock/SCRATCH/217079/C47445-P151

>  <alias>  (82) 
None

>  <SLURM_JOB_ID>  (82) 
217079

>  <exports>  (82) 
['/opt/xchem-fragalysis-2/maxwin/BulkDock/OUTPUTS/RdRp_knitwork_green_site_rna_tunnel_pure_split4000_batch008_217079.sdf']

$$$$
95052
     RDKit          3D

 17 17  0  0  0  0  0  0  0  0999 V2000
  -27.1699  -29.9492  -15.6666 C   0  0  0  0  0  0  0  0  0  0  0  0
  -28.2362  -29.5269  -16.4960 O   0  0  0  0  0  0  0  0  0  0  0  0
  -28.1057  -29.7968  -17.8229 C   0  0  0  0  0  0  0  0  0  0  0  0
  -26.9102  -30.0884  -18.4710 C   0  0  0  0  0  0  0  0  0  0  0  0
  -26.9583  -30.3554  -19.8321 C   0  0  0  0  0  0  0  0  0  0  0  0
  -25.8139  -30.7201  -20.5315 N   0  0  0  0  0  0  0  0  0  0  0  0
  -25.5768  -30.8805  -22.0622 C   0  0  0  0  0  0  0  0  0  0  0  0
  -26.2673  -30.6609  -22.9389 O   0  0  0  0  0  0  0  0  0  0  0  0
  -24.1625  -31.5061  -22.0368 N   0  0  0  0  0  0  0  0  0  0  0  0
  -23.3738  -32.0669  -23.0992 C   0  0  0  0  0  0  0  0  0  0  0  0
  -21.9633  -32.4413  -22.6609 C   0  0  1  0  0  0  0  0  0  0  0  0
  -21.1406  -32.9205  -23.8425 C   0  0  0  0  0  0  0  0  0  0  0  0
  -21.2999  -31.3316  -22.0622 O   0  0  0  0  0  0  0  0  0  0  0  0
  -28.1698  -30.2964  -20.5057 C   0  0  0  0  0  0  0  0  0  0  0  0
  -29.2938  -30.0294  -19.7648 C   0  0  0  0  0  0  0  0  0  0  0  0
  -30.8436  -30.0766  -20.4709 Cl  0  0  0  0  0  0  0  0  0  0  0  0
  -29.2922  -29.7728  -18.4497 N   0  0  0  0  0  0  0  0  0  0  0  0
  1  2  1  0
  2  3  1  0
  3  4  2  0
  4  5  1  0
  5  6  1  0
  6  7  1  0
  7  8  2  0
  7  9  1  0
  9 10  1  0
 10 11  1  0
 11 12  1  6
 11 13  1  0
  5 14  2  0
 14 15  1  0
 15 16  1  0
 15 17  2  0
 17  3  1  0
M  END
>  <HIPPO Pose ID>  (83) 
95052

>  <fragmenstein_outcome>  (83) 
acceptable

>  <energy_score>  (83) 
-23.345938

>  <distance_score>  (83) 
0.656083

>  <fragmenstein_mode>  (83) 
expansion

>  <HIPPO Compound ID>  (83) 
47509

>  <name>  (83) 
KTAYONPEFVCZTL-ZCFIWIBFSA-N

>  <ref_pdb>  (83) 
z0211a

>  <ref_mols>  (83) 
z0211a,z0637a

>  <csv_name>  (83) 
RdRp_knitwork_green_site_rna_tunnel_pure_split4000_batch008.csv

>  <fragmenstein_runtime>  (83) 
3.56742

>  <tags>  (83) 
['Fragmenstein placed']

>  <original ID>  (83) 
KTAYONPEFVCZTL-ZCFIWIBFSA-N

>  <fragmenstein_error>  (83) 
None

>  <original SMILES>  (83) 
COc1cc(NC(=O)NC[C@@H](C)O)cc(Cl)n1

>  <inchikey>  (83) 
KTAYONPEFVCZTL-ZCFIWIBFSA-N

>  <SLURM_JOB_NAME>  (83) 
BulkDock.place:Flavi_NS5_RdRp:RdRp_knitwork_green_site_rna_tunnel_pure_split4000_batch008

>  <scratch_subdir>  (83) 
/opt/xchem-fragalysis-2/maxwin/BulkDock/SCRATCH/217079/C47509-P102

>  <alias>  (83) 
None

>  <SLURM_JOB_ID>  (83) 
217079

>  <exports>  (83) 
['/opt/xchem-fragalysis-2/maxwin/BulkDock/OUTPUTS/RdRp_knitwork_green_site_rna_tunnel_pure_split4000_batch008_217079.sdf']

$$$$
95061
     RDKit          3D

 16 16  0  0  0  0  0  0  0  0999 V2000
  -25.5507  -29.7966  -17.3155 C   0  0  0  0  0  0  0  0  0  0  0  0
  -26.7621  -29.9184  -18.1783 C   0  0  0  0  0  0  0  0  0  0  0  0
  -27.9982  -29.5098  -17.6909 C   0  0  0  0  0  0  0  0  0  0  0  0
  -29.1502  -29.6027  -18.3742 N   0  0  0  0  0  0  0  0  0  0  0  0
  -29.0714  -30.1302  -19.6083 C   0  0  0  0  0  0  0  0  0  0  0  0
  -30.5679  -30.1890  -20.4243 Cl  0  0  0  0  0  0  0  0  0  0  0  0
  -27.9106  -30.6033  -20.1851 C   0  0  0  0  0  0  0  0  0  0  0  0
  -26.7350  -30.5102  -19.4444 C   0  0  0  0  0  0  0  0  0  0  0  0
  -25.5443  -31.0435  -19.9417 N   0  0  0  0  0  0  0  0  0  0  0  0
  -25.2913  -31.9851  -21.1558 C   0  0  0  0  0  0  0  0  0  0  0  0
  -26.0137  -32.3803  -21.9434 O   0  0  0  0  0  0  0  0  0  0  0  0
  -23.7602  -32.1901  -21.0069 N   0  0  0  0  0  0  0  0  0  0  0  0
  -22.8483  -33.0128  -21.7678 C   0  0  0  0  0  0  0  0  0  0  0  0
  -22.2233  -32.2161  -22.9161 C   0  0  2  0  0  0  0  0  0  0  0  0
  -21.4711  -33.1115  -23.8813 C   0  0  0  0  0  0  0  0  0  0  0  0
  -21.2767  -31.2975  -22.3689 O   0  0  0  0  0  0  0  0  0  0  0  0
  1  2  1  0
  2  3  2  0
  3  4  1  0
  4  5  2  0
  5  6  1  0
  5  7  1  0
  7  8  2  0
  8  9  1  0
  9 10  1  0
 10 11  2  0
 10 12  1  0
 12 13  1  0
 13 14  1  0
 14 15  1  6
 14 16  1  0
  8  2  1  0
M  END
>  <HIPPO Pose ID>  (84) 
95061

>  <fragmenstein_outcome>  (84) 
acceptable

>  <energy_score>  (84) 
-17.631489

>  <distance_score>  (84) 
0.953793

>  <fragmenstein_mode>  (84) 
expansion

>  <HIPPO Compound ID>  (84) 
47523

>  <name>  (84) 
KTHNXKMPSFBCIP-ZETCQYMHSA-N

>  <ref_pdb>  (84) 
z0211a

>  <ref_mols>  (84) 
z0211a,z0637a

>  <csv_name>  (84) 
RdRp_knitwork_green_site_rna_tunnel_pure_split4000_batch008.csv

>  <fragmenstein_runtime>  (84) 
4.835982

>  <tags>  (84) 
['Fragmenstein placed']

>  <original ID>  (84) 
KTHNXKMPSFBCIP-ZETCQYMHSA-N

>  <fragmenstein_error>  (84) 
None

>  <original SMILES>  (84) 
Cc1cnc(Cl)cc1NC(=O)NC[C@H](C)O

>  <inchikey>  (84) 
KTHNXKMPSFBCIP-ZETCQYMHSA-N

>  <SLURM_JOB_NAME>  (84) 
BulkDock.place:Flavi_NS5_RdRp:RdRp_knitwork_green_site_rna_tunnel_pure_split4000_batch008

>  <scratch_subdir>  (84) 
/opt/xchem-fragalysis-2/maxwin/BulkDock/SCRATCH/217079/C47523-P102

>  <alias>  (84) 
None

>  <SLURM_JOB_ID>  (84) 
217079

>  <exports>  (84) 
['/opt/xchem-fragalysis-2/maxwin/BulkDock/OUTPUTS/RdRp_knitwork_green_site_rna_tunnel_pure_split4000_batch008_217079.sdf']

$$$$
95071
     RDKit          3D

 16 16  0  0  0  0  0  0  0  0999 V2000
  -25.7178  -30.1972  -17.3396 C   0  0  0  0  0  0  0  0  0  0  0  0
  -26.8380  -30.0548  -18.3191 C   0  0  0  0  0  0  0  0  0  0  0  0
  -28.0840  -29.6139  -17.8834 C   0  0  0  0  0  0  0  0  0  0  0  0
  -29.1556  -29.4666  -18.6817 N   0  0  0  0  0  0  0  0  0  0  0  0
  -28.9702  -29.7455  -19.9845 C   0  0  0  0  0  0  0  0  0  0  0  0
  -30.3694  -29.5741  -20.9489 Cl  0  0  0  0  0  0  0  0  0  0  0  0
  -27.7773  -30.1692  -20.5342 C   0  0  0  0  0  0  0  0  0  0  0  0
  -26.7019  -30.3643  -19.6769 C   0  0  0  0  0  0  0  0  0  0  0  0
  -25.5265  -30.9561  -20.1463 N   0  0  0  0  0  0  0  0  0  0  0  0
  -25.1138  -31.3753  -21.5931 C   0  0  0  0  0  0  0  0  0  0  0  0
  -25.6523  -31.2195  -22.5875 O   0  0  0  0  0  0  0  0  0  0  0  0
  -23.8088  -32.1545  -21.2694 N   0  0  0  0  0  0  0  0  0  0  0  0
  -22.9731  -32.9725  -22.1174 C   0  0  0  0  0  0  0  0  0  0  0  0
  -22.0804  -32.1254  -23.0205 C   0  0  2  0  0  0  0  0  0  0  0  0
  -21.2510  -32.9918  -23.9500 C   0  0  0  0  0  0  0  0  0  0  0  0
  -21.1902  -31.3637  -22.2030 O   0  0  0  0  0  0  0  0  0  0  0  0
  1  2  1  0
  2  3  2  0
  3  4  1  0
  4  5  2  0
  5  6  1  0
  5  7  1  0
  7  8  2  0
  8  9  1  0
  9 10  1  0
 10 11  2  0
 10 12  1  0
 12 13  1  0
 13 14  1  0
 14 15  1  6
 14 16  1  0
  8  2  1  0
M  END
>  <HIPPO Pose ID>  (85) 
95071

>  <fragmenstein_outcome>  (85) 
acceptable

>  <energy_score>  (85) 
-18.562832

>  <distance_score>  (85) 
0.695037

>  <fragmenstein_mode>  (85) 
expansion

>  <HIPPO Compound ID>  (85) 
47523

>  <name>  (85) 
KTHNXKMPSFBCIP-ZETCQYMHSA-N

>  <ref_pdb>  (85) 
z0637a

>  <ref_mols>  (85) 
z0211a,z0637a

>  <csv_name>  (85) 
RdRp_knitwork_green_site_rna_tunnel_pure_split4000_batch008.csv

>  <fragmenstein_runtime>  (85) 
3.713275

>  <tags>  (85) 
['Fragmenstein placed']

>  <original ID>  (85) 
KTHNXKMPSFBCIP-ZETCQYMHSA-N

>  <fragmenstein_error>  (85) 
None

>  <original SMILES>  (85) 
Cc1cnc(Cl)cc1NC(=O)NC[C@H](C)O

>  <inchikey>  (85) 
KTHNXKMPSFBCIP-ZETCQYMHSA-N

>  <SLURM_JOB_NAME>  (85) 
BulkDock.place:Flavi_NS5_RdRp:RdRp_knitwork_green_site_rna_tunnel_pure_split4000_batch008

>  <scratch_subdir>  (85) 
/opt/xchem-fragalysis-2/maxwin/BulkDock/SCRATCH/217079/C47523-P151

>  <alias>  (85) 
None

>  <SLURM_JOB_ID>  (85) 
217079

>  <exports>  (85) 
['/opt/xchem-fragalysis-2/maxwin/BulkDock/OUTPUTS/RdRp_knitwork_green_site_rna_tunnel_pure_split4000_batch008_217079.sdf']

$$$$
95082
     RDKit          3D

 16 16  0  0  0  0  0  0  0  0999 V2000
  -30.7887  -30.3036  -20.1414 C   0  0  0  0  0  0  0  0  0  0  0  0
  -29.4387  -30.1070  -19.5430 C   0  0  0  0  0  0  0  0  0  0  0  0
  -29.2965  -29.8021  -18.1983 C   0  0  0  0  0  0  0  0  0  0  0  0
  -28.1097  -29.6628  -17.5751 N   0  0  0  0  0  0  0  0  0  0  0  0
  -27.0117  -29.9213  -18.3238 C   0  0  0  0  0  0  0  0  0  0  0  0
  -25.5493  -29.7833  -17.4430 Cl  0  0  0  0  0  0  0  0  0  0  0  0
  -27.0322  -30.2808  -19.6641 C   0  0  0  0  0  0  0  0  0  0  0  0
  -25.8895  -30.6256  -20.3850 N   0  0  0  0  0  0  0  0  0  0  0  0
  -25.7045  -30.9080  -21.9019 C   0  0  0  0  0  0  0  0  0  0  0  0
  -26.4448  -30.8207  -22.7599 O   0  0  0  0  0  0  0  0  0  0  0  0
  -24.2462  -31.4235  -21.8893 N   0  0  0  0  0  0  0  0  0  0  0  0
  -23.3960  -31.8440  -22.9738 C   0  0  0  0  0  0  0  0  0  0  0  0
  -22.1407  -32.5737  -22.5030 C   0  0  1  0  0  0  0  0  0  0  0  0
  -21.1965  -32.8373  -23.6640 C   0  0  0  0  0  0  0  0  0  0  0  0
  -21.4697  -31.7959  -21.5144 O   0  0  0  0  0  0  0  0  0  0  0  0
  -28.2793  -30.3351  -20.2834 C   0  0  0  0  0  0  0  0  0  0  0  0
  1  2  1  0
  2  3  2  0
  3  4  1  0
  4  5  2  0
  5  6  1  0
  5  7  1  0
  7  8  1  0
  8  9  1  0
  9 10  2  0
  9 11  1  0
 11 12  1  0
 12 13  1  0
 13 14  1  6
 13 15  1  0
  7 16  2  0
 16  2  1  0
M  END
>  <HIPPO Pose ID>  (86) 
95082

>  <fragmenstein_outcome>  (86) 
acceptable

>  <energy_score>  (86) 
-23.956682

>  <distance_score>  (86) 
0.639373

>  <fragmenstein_mode>  (86) 
expansion

>  <HIPPO Compound ID>  (86) 
47524

>  <name>  (86) 
JXBTZXWOKQCEHA-SSDOTTSWSA-N

>  <ref_pdb>  (86) 
z0211a

>  <ref_mols>  (86) 
z0211a,z0637a

>  <csv_name>  (86) 
RdRp_knitwork_green_site_rna_tunnel_pure_split4000_batch008.csv

>  <fragmenstein_runtime>  (86) 
1.791585

>  <tags>  (86) 
['Fragmenstein placed']

>  <original ID>  (86) 
JXBTZXWOKQCEHA-SSDOTTSWSA-N

>  <fragmenstein_error>  (86) 
None

>  <original SMILES>  (86) 
Cc1cnc(Cl)c(NC(=O)NC[C@@H](C)O)c1

>  <inchikey>  (86) 
JXBTZXWOKQCEHA-SSDOTTSWSA-N

>  <SLURM_JOB_NAME>  (86) 
BulkDock.place:Flavi_NS5_RdRp:RdRp_knitwork_green_site_rna_tunnel_pure_split4000_batch008

>  <scratch_subdir>  (86) 
/opt/xchem-fragalysis-2/maxwin/BulkDock/SCRATCH/217079/C47524-P102

>  <alias>  (86) 
None

>  <SLURM_JOB_ID>  (86) 
217079

>  <exports>  (86) 
['/opt/xchem-fragalysis-2/maxwin/BulkDock/OUTPUTS/RdRp_knitwork_green_site_rna_tunnel_pure_split4000_batch008_217079.sdf']

$$$$
95086
     RDKit          3D

 16 16  0  0  0  0  0  0  0  0999 V2000
  -30.6269  -29.8759  -20.5780 C   0  0  0  0  0  0  0  0  0  0  0  0
  -29.3073  -29.8293  -19.8863 C   0  0  0  0  0  0  0  0  0  0  0  0
  -29.2397  -29.6984  -18.5076 C   0  0  0  0  0  0  0  0  0  0  0  0
  -28.0918  -29.7379  -17.8059 N   0  0  0  0  0  0  0  0  0  0  0  0
  -26.9681  -29.9961  -18.5146 C   0  0  0  0  0  0  0  0  0  0  0  0
  -25.5658  -30.1052  -17.5330 Cl  0  0  0  0  0  0  0  0  0  0  0  0
  -26.9165  -30.1771  -19.8938 C   0  0  0  0  0  0  0  0  0  0  0  0
  -25.7519  -30.5721  -20.5594 N   0  0  0  0  0  0  0  0  0  0  0  0
  -25.4781  -30.7749  -22.0835 C   0  0  0  0  0  0  0  0  0  0  0  0
  -26.1467  -30.5719  -22.9854 O   0  0  0  0  0  0  0  0  0  0  0  0
  -24.0739  -31.4271  -22.0044 N   0  0  0  0  0  0  0  0  0  0  0  0
  -23.1908  -31.8671  -23.0512 C   0  0  0  0  0  0  0  0  0  0  0  0
  -22.0772  -32.7712  -22.5466 C   0  0  1  0  0  0  0  0  0  0  0  0
  -21.0950  -33.0693  -23.6663 C   0  0  0  0  0  0  0  0  0  0  0  0
  -21.3958  -32.1093  -21.4812 O   0  0  0  0  0  0  0  0  0  0  0  0
  -28.1145  -30.0402  -20.5834 C   0  0  0  0  0  0  0  0  0  0  0  0
  1  2  1  0
  2  3  2  0
  3  4  1  0
  4  5  2  0
  5  6  1  0
  5  7  1  0
  7  8  1  0
  8  9  1  0
  9 10  2  0
  9 11  1  0
 11 12  1  0
 12 13  1  0
 13 14  1  6
 13 15  1  0
  7 16  2  0
 16  2  1  0
M  END
>  <HIPPO Pose ID>  (87) 
95086

>  <fragmenstein_outcome>  (87) 
acceptable

>  <energy_score>  (87) 
-24.696144

>  <distance_score>  (87) 
0.61089

>  <fragmenstein_mode>  (87) 
expansion

>  <HIPPO Compound ID>  (87) 
47524

>  <name>  (87) 
JXBTZXWOKQCEHA-SSDOTTSWSA-N

>  <ref_pdb>  (87) 
z0637a

>  <ref_mols>  (87) 
z0211a,z0637a

>  <csv_name>  (87) 
RdRp_knitwork_green_site_rna_tunnel_pure_split4000_batch008.csv

>  <fragmenstein_runtime>  (87) 
2.47309

>  <tags>  (87) 
['Fragmenstein placed']

>  <original ID>  (87) 
JXBTZXWOKQCEHA-SSDOTTSWSA-N

>  <fragmenstein_error>  (87) 
None

>  <original SMILES>  (87) 
Cc1cnc(Cl)c(NC(=O)NC[C@@H](C)O)c1

>  <inchikey>  (87) 
JXBTZXWOKQCEHA-SSDOTTSWSA-N

>  <SLURM_JOB_NAME>  (87) 
BulkDock.place:Flavi_NS5_RdRp:RdRp_knitwork_green_site_rna_tunnel_pure_split4000_batch008

>  <scratch_subdir>  (87) 
/opt/xchem-fragalysis-2/maxwin/BulkDock/SCRATCH/217079/C47524-P151

>  <alias>  (87) 
None

>  <SLURM_JOB_ID>  (87) 
217079

>  <exports>  (87) 
['/opt/xchem-fragalysis-2/maxwin/BulkDock/OUTPUTS/RdRp_knitwork_green_site_rna_tunnel_pure_split4000_batch008_217079.sdf']

$$$$
95099
     RDKit          3D

 16 16  0  0  0  0  0  0  0  0999 V2000
  -30.6145  -30.0677  -20.3913 C   0  0  0  0  0  0  0  0  0  0  0  0
  -29.2849  -29.9485  -19.7275 C   0  0  0  0  0  0  0  0  0  0  0  0
  -28.1253  -30.1725  -20.4502 C   0  0  0  0  0  0  0  0  0  0  0  0
  -26.9155  -30.2796  -19.7672 C   0  0  0  0  0  0  0  0  0  0  0  0
  -25.7781  -30.6730  -20.4652 N   0  0  0  0  0  0  0  0  0  0  0  0
  -25.5589  -30.8962  -21.9920 C   0  0  0  0  0  0  0  0  0  0  0  0
  -26.2601  -30.7129  -22.8690 O   0  0  0  0  0  0  0  0  0  0  0  0
  -24.1507  -31.5338  -21.9555 N   0  0  0  0  0  0  0  0  0  0  0  0
  -23.3829  -32.1537  -22.9994 C   0  0  0  0  0  0  0  0  0  0  0  0
  -21.8793  -32.0995  -22.7526 C   0  0  2  0  0  0  0  0  0  0  0  0
  -21.1537  -32.9845  -23.7499 C   0  0  0  0  0  0  0  0  0  0  0  0
  -21.6068  -32.5759  -21.4329 O   0  0  0  0  0  0  0  0  0  0  0  0
  -26.8811  -30.0845  -18.3980 C   0  0  0  0  0  0  0  0  0  0  0  0
  -28.0903  -29.8267  -17.7780 C   0  0  0  0  0  0  0  0  0  0  0  0
  -28.2205  -29.7013  -16.0797 Cl  0  0  0  0  0  0  0  0  0  0  0  0
  -29.2822  -29.7678  -18.3956 N   0  0  0  0  0  0  0  0  0  0  0  0
  1  2  1  0
  2  3  2  0
  3  4  1  0
  4  5  1  0
  5  6  1  0
  6  7  2  0
  6  8  1  0
  8  9  1  0
  9 10  1  0
 10 11  1  6
 10 12  1  0
  4 13  2  0
 13 14  1  0
 14 15  1  0
 14 16  2  0
 16  2  1  0
M  END
>  <HIPPO Pose ID>  (88) 
95099

>  <fragmenstein_outcome>  (88) 
acceptable

>  <energy_score>  (88) 
-32.649852

>  <distance_score>  (88) 
0.580411

>  <fragmenstein_mode>  (88) 
expansion

>  <HIPPO Compound ID>  (88) 
47730

>  <name>  (88) 
IJPRXOPUIXRMDE-ZETCQYMHSA-N

>  <ref_pdb>  (88) 
z0211a

>  <ref_mols>  (88) 
z0211a,z0637a

>  <csv_name>  (88) 
RdRp_knitwork_green_site_rna_tunnel_pure_split4000_batch008.csv

>  <fragmenstein_runtime>  (88) 
3.049268

>  <tags>  (88) 
['Fragmenstein placed']

>  <original ID>  (88) 
IJPRXOPUIXRMDE-ZETCQYMHSA-N

>  <fragmenstein_error>  (88) 
None

>  <original SMILES>  (88) 
Cc1cc(NC(=O)NC[C@H](C)O)cc(Cl)n1

>  <inchikey>  (88) 
IJPRXOPUIXRMDE-ZETCQYMHSA-N

>  <SLURM_JOB_NAME>  (88) 
BulkDock.place:Flavi_NS5_RdRp:RdRp_knitwork_green_site_rna_tunnel_pure_split4000_batch008

>  <scratch_subdir>  (88) 
/opt/xchem-fragalysis-2/maxwin/BulkDock/SCRATCH/217079/C47730-P102

>  <alias>  (88) 
None

>  <SLURM_JOB_ID>  (88) 
217079

>  <exports>  (88) 
['/opt/xchem-fragalysis-2/maxwin/BulkDock/OUTPUTS/RdRp_knitwork_green_site_rna_tunnel_pure_split4000_batch008_217079.sdf']

$$$$
95106
     RDKit          3D

 16 16  0  0  0  0  0  0  0  0999 V2000
  -30.6007  -29.6892  -20.7029 C   0  0  0  0  0  0  0  0  0  0  0  0
  -29.2923  -29.6567  -19.9858 C   0  0  0  0  0  0  0  0  0  0  0  0
  -28.1083  -29.8668  -20.6775 C   0  0  0  0  0  0  0  0  0  0  0  0
  -26.9502  -30.1291  -19.9557 C   0  0  0  0  0  0  0  0  0  0  0  0
  -25.8249  -30.6257  -20.6133 N   0  0  0  0  0  0  0  0  0  0  0  0
  -25.5091  -30.7294  -22.1433 C   0  0  0  0  0  0  0  0  0  0  0  0
  -26.0994  -30.3517  -23.0457 O   0  0  0  0  0  0  0  0  0  0  0  0
  -24.2161  -31.5822  -22.0777 N   0  0  0  0  0  0  0  0  0  0  0  0
  -23.4605  -32.2101  -23.1270 C   0  0  0  0  0  0  0  0  0  0  0  0
  -21.9547  -32.0249  -22.9569 C   0  0  2  0  0  0  0  0  0  0  0  0
  -21.2054  -32.9720  -23.8783 C   0  0  0  0  0  0  0  0  0  0  0  0
  -21.5958  -32.3268  -21.6042 O   0  0  0  0  0  0  0  0  0  0  0  0
  -26.9810  -30.0652  -18.5682 C   0  0  0  0  0  0  0  0  0  0  0  0
  -28.1939  -29.7568  -17.9783 C   0  0  0  0  0  0  0  0  0  0  0  0
  -28.3875  -29.6463  -16.2817 Cl  0  0  0  0  0  0  0  0  0  0  0  0
  -29.3440  -29.5795  -18.6437 N   0  0  0  0  0  0  0  0  0  0  0  0
  1  2  1  0
  2  3  2  0
  3  4  1  0
  4  5  1  0
  5  6  1  0
  6  7  2  0
  6  8  1  0
  8  9  1  0
  9 10  1  0
 10 11  1  6
 10 12  1  0
  4 13  2  0
 13 14  1  0
 14 15  1  0
 14 16  2  0
 16  2  1  0
M  END
>  <HIPPO Pose ID>  (89) 
95106

>  <fragmenstein_outcome>  (89) 
acceptable

>  <energy_score>  (89) 
-31.913836

>  <distance_score>  (89) 
0.550958

>  <fragmenstein_mode>  (89) 
expansion

>  <HIPPO Compound ID>  (89) 
47730

>  <name>  (89) 
IJPRXOPUIXRMDE-ZETCQYMHSA-N

>  <ref_pdb>  (89) 
z0637a

>  <ref_mols>  (89) 
z0211a,z0637a

>  <csv_name>  (89) 
RdRp_knitwork_green_site_rna_tunnel_pure_split4000_batch008.csv

>  <fragmenstein_runtime>  (89) 
2.944551

>  <tags>  (89) 
['Fragmenstein placed']

>  <original ID>  (89) 
IJPRXOPUIXRMDE-ZETCQYMHSA-N

>  <fragmenstein_error>  (89) 
None

>  <original SMILES>  (89) 
Cc1cc(NC(=O)NC[C@H](C)O)cc(Cl)n1

>  <inchikey>  (89) 
IJPRXOPUIXRMDE-ZETCQYMHSA-N

>  <SLURM_JOB_NAME>  (89) 
BulkDock.place:Flavi_NS5_RdRp:RdRp_knitwork_green_site_rna_tunnel_pure_split4000_batch008

>  <scratch_subdir>  (89) 
/opt/xchem-fragalysis-2/maxwin/BulkDock/SCRATCH/217079/C47730-P151

>  <alias>  (89) 
None

>  <SLURM_JOB_ID>  (89) 
217079

>  <exports>  (89) 
['/opt/xchem-fragalysis-2/maxwin/BulkDock/OUTPUTS/RdRp_knitwork_green_site_rna_tunnel_pure_split4000_batch008_217079.sdf']

$$$$
95111
     RDKit          3D

 16 16  0  0  0  0  0  0  0  0999 V2000
  -21.0967  -32.9344  -24.0434 C   0  0  0  0  0  0  0  0  0  0  0  0
  -21.9179  -32.4773  -22.8551 C   0  0  1  0  0  0  0  0  0  0  0  0
  -21.2561  -31.3767  -22.2343 O   0  0  0  0  0  0  0  0  0  0  0  0
  -23.3341  -32.1046  -23.2809 C   0  0  0  0  0  0  0  0  0  0  0  0
  -24.0786  -31.5346  -22.1951 N   0  0  0  0  0  0  0  0  0  0  0  0
  -25.4854  -30.9004  -22.1721 C   0  0  0  0  0  0  0  0  0  0  0  0
  -26.2049  -30.6798  -23.0228 O   0  0  0  0  0  0  0  0  0  0  0  0
  -25.6588  -30.7216  -20.6438 N   0  0  0  0  0  0  0  0  0  0  0  0
  -26.7633  -30.3342  -19.9075 C   0  0  0  0  0  0  0  0  0  0  0  0
  -28.0288  -30.2240  -20.4830 C   0  0  0  0  0  0  0  0  0  0  0  0
  -29.1609  -30.0395  -19.7680 N   0  0  0  0  0  0  0  0  0  0  0  0
  -29.0002  -29.9403  -18.4321 C   0  0  0  0  0  0  0  0  0  0  0  0
  -30.4531  -30.0048  -17.5346 Cl  0  0  0  0  0  0  0  0  0  0  0  0
  -27.7717  -29.9321  -17.7870 C   0  0  0  0  0  0  0  0  0  0  0  0
  -27.6119  -29.8639  -15.9084 Br  0  0  0  0  0  0  0  0  0  0  0  0
  -26.6266  -30.1352  -18.5430 C   0  0  0  0  0  0  0  0  0  0  0  0
  2  1  1  6
  2  3  1  0
  2  4  1  0
  4  5  1  0
  5  6  1  0
  6  7  2  0
  6  8  1  0
  8  9  1  0
  9 10  2  0
 10 11  1  0
 11 12  2  0
 12 13  1  0
 12 14  1  0
 14 15  1  0
 14 16  2  0
 16  9  1  0
M  END
>  <HIPPO Pose ID>  (90) 
95111

>  <fragmenstein_outcome>  (90) 
acceptable

>  <energy_score>  (90) 
-13.537867

>  <distance_score>  (90) 
0.742986

>  <fragmenstein_mode>  (90) 
expansion

>  <HIPPO Compound ID>  (90) 
47731

>  <name>  (90) 
URFZNSCNHCZBIF-RXMQYKEDSA-N

>  <ref_pdb>  (90) 
z0211a

>  <ref_mols>  (90) 
z0211a,z0637a

>  <csv_name>  (90) 
RdRp_knitwork_green_site_rna_tunnel_pure_split4000_batch008.csv

>  <fragmenstein_runtime>  (90) 
3.62744

>  <tags>  (90) 
['Fragmenstein placed']

>  <original ID>  (90) 
URFZNSCNHCZBIF-RXMQYKEDSA-N

>  <fragmenstein_error>  (90) 
None

>  <original SMILES>  (90) 
C[C@@H](O)CNC(=O)Nc1cnc(Cl)c(Br)c1

>  <inchikey>  (90) 
URFZNSCNHCZBIF-RXMQYKEDSA-N

>  <SLURM_JOB_NAME>  (90) 
BulkDock.place:Flavi_NS5_RdRp:RdRp_knitwork_green_site_rna_tunnel_pure_split4000_batch008

>  <scratch_subdir>  (90) 
/opt/xchem-fragalysis-2/maxwin/BulkDock/SCRATCH/217079/C47731-P102

>  <alias>  (90) 
None

>  <SLURM_JOB_ID>  (90) 
217079

>  <exports>  (90) 
['/opt/xchem-fragalysis-2/maxwin/BulkDock/OUTPUTS/RdRp_knitwork_green_site_rna_tunnel_pure_split4000_batch008_217079.sdf']

$$$$
95117
     RDKit          3D

 16 16  0  0  0  0  0  0  0  0999 V2000
  -20.8375  -33.0734  -23.8785 C   0  0  0  0  0  0  0  0  0  0  0  0
  -21.7364  -32.6440  -22.7405 C   0  0  1  0  0  0  0  0  0  0  0  0
  -21.2351  -31.4393  -22.1640 O   0  0  0  0  0  0  0  0  0  0  0  0
  -23.1522  -32.4781  -23.2616 C   0  0  0  0  0  0  0  0  0  0  0  0
  -23.9854  -31.7805  -22.3324 N   0  0  0  0  0  0  0  0  0  0  0  0
  -25.1343  -30.7812  -22.5756 C   0  0  0  0  0  0  0  0  0  0  0  0
  -25.5195  -30.3239  -23.5455 O   0  0  0  0  0  0  0  0  0  0  0  0
  -25.6787  -30.6604  -21.1204 N   0  0  0  0  0  0  0  0  0  0  0  0
  -26.8177  -30.0454  -20.6414 C   0  0  0  0  0  0  0  0  0  0  0  0
  -27.6860  -29.5240  -21.5871 C   0  0  0  0  0  0  0  0  0  0  0  0
  -28.9702  -29.2698  -21.3544 N   0  0  0  0  0  0  0  0  0  0  0  0
  -29.3918  -29.5219  -20.1113 C   0  0  0  0  0  0  0  0  0  0  0  0
  -31.0672  -29.7537  -20.1555 Cl  0  0  0  0  0  0  0  0  0  0  0  0
  -28.5615  -29.8035  -19.0329 C   0  0  0  0  0  0  0  0  0  0  0  0
  -29.1761  -29.7871  -17.2465 Br  0  0  0  0  0  0  0  0  0  0  0  0
  -27.2268  -30.1031  -19.3143 C   0  0  0  0  0  0  0  0  0  0  0  0
  2  1  1  6
  2  3  1  0
  2  4  1  0
  4  5  1  0
  5  6  1  0
  6  7  2  0
  6  8  1  0
  8  9  1  0
  9 10  2  0
 10 11  1  0
 11 12  2  0
 12 13  1  0
 12 14  1  0
 14 15  1  0
 14 16  2  0
 16  9  1  0
M  END
>  <HIPPO Pose ID>  (91) 
95117

>  <fragmenstein_outcome>  (91) 
acceptable

>  <energy_score>  (91) 
-2.972812

>  <distance_score>  (91) 
0.934595

>  <fragmenstein_mode>  (91) 
expansion

>  <HIPPO Compound ID>  (91) 
47731

>  <name>  (91) 
URFZNSCNHCZBIF-RXMQYKEDSA-N

>  <ref_pdb>  (91) 
z0637a

>  <ref_mols>  (91) 
z0211a,z0637a

>  <csv_name>  (91) 
RdRp_knitwork_green_site_rna_tunnel_pure_split4000_batch008.csv

>  <fragmenstein_runtime>  (91) 
2.487985

>  <tags>  (91) 
['Fragmenstein placed']

>  <original ID>  (91) 
URFZNSCNHCZBIF-RXMQYKEDSA-N

>  <fragmenstein_error>  (91) 
None

>  <original SMILES>  (91) 
C[C@@H](O)CNC(=O)Nc1cnc(Cl)c(Br)c1

>  <inchikey>  (91) 
URFZNSCNHCZBIF-RXMQYKEDSA-N

>  <SLURM_JOB_NAME>  (91) 
BulkDock.place:Flavi_NS5_RdRp:RdRp_knitwork_green_site_rna_tunnel_pure_split4000_batch008

>  <scratch_subdir>  (91) 
/opt/xchem-fragalysis-2/maxwin/BulkDock/SCRATCH/217079/C47731-P151

>  <alias>  (91) 
None

>  <SLURM_JOB_ID>  (91) 
217079

>  <exports>  (91) 
['/opt/xchem-fragalysis-2/maxwin/BulkDock/OUTPUTS/RdRp_knitwork_green_site_rna_tunnel_pure_split4000_batch008_217079.sdf']

$$$$
95156
     RDKit          3D

 22 22  0  0  0  0  0  0  0  0999 V2000
  -21.0567  -32.8937  -24.1500 C   0  0  0  0  0  0  0  0  0  0  0  0
  -22.0150  -32.2236  -23.1867 C   0  0  2  0  0  0  0  0  0  0  0  0
  -21.2540  -31.3548  -22.3512 O   0  0  0  0  0  0  0  0  0  0  0  0
  -22.7279  -33.2563  -22.3141 C   0  0  0  0  0  0  0  0  0  0  0  0
  -23.8258  -32.6655  -21.5932 N   0  0  0  0  0  0  0  0  0  0  0  0
  -25.0834  -31.9243  -22.1122 C   0  0  0  0  0  0  0  0  0  0  0  0
  -25.4485  -31.7527  -23.1758 O   0  0  0  0  0  0  0  0  0  0  0  0
  -25.7502  -31.5745  -20.7545 N   0  0  0  0  0  0  0  0  0  0  0  0
  -26.9246  -30.8782  -20.4795 C   0  0  0  0  0  0  0  0  0  0  0  0
  -27.7373  -30.3238  -21.4450 C   0  0  0  0  0  0  0  0  0  0  0  0
  -28.8452  -29.6195  -21.0104 C   0  0  0  0  0  0  0  0  0  0  0  0
  -29.1425  -29.4057  -19.7108 N   0  0  0  0  0  0  0  0  0  0  0  0
  -28.3229  -29.9178  -18.7846 C   0  0  0  0  0  0  0  0  0  0  0  0
  -28.5826  -29.4352  -17.5418 O   0  0  0  0  0  0  0  0  0  0  0  0
  -27.9265  -29.8938  -16.3658 C   0  0  0  0  0  0  0  0  0  0  0  0
  -26.4002  -29.8566  -16.2370 C   0  0  0  0  0  0  0  0  0  0  0  0
  -25.9086  -31.1259  -16.3220 F   0  0  0  0  0  0  0  0  0  0  0  0
  -26.1246  -29.4855  -14.9514 F   0  0  0  0  0  0  0  0  0  0  0  0
  -25.6740  -28.9469  -17.2236 C   0  0  0  0  0  0  0  0  0  0  0  0
  -24.9829  -29.6649  -18.1480 F   0  0  0  0  0  0  0  0  0  0  0  0
  -24.7495  -28.1732  -16.6026 F   0  0  0  0  0  0  0  0  0  0  0  0
  -27.2511  -30.7045  -19.1422 C   0  0  0  0  0  0  0  0  0  0  0  0
  2  1  1  6
  2  3  1  0
  2  4  1  0
  4  5  1  0
  5  6  1  0
  6  7  2  0
  6  8  1  0
  8  9  1  0
  9 10  2  0
 10 11  1  0
 11 12  2  0
 12 13  1  0
 13 14  1  0
 14 15  1  0
 15 16  1  0
 16 17  1  0
 16 18  1  0
 16 19  1  0
 19 20  1  0
 19 21  1  0
 13 22  2  0
 22  9  1  0
M  END
>  <HIPPO Pose ID>  (92) 
95156

>  <fragmenstein_outcome>  (92) 
acceptable

>  <energy_score>  (92) 
-23.255725

>  <distance_score>  (92) 
0.898107

>  <fragmenstein_mode>  (92) 
expansion

>  <HIPPO Compound ID>  (92) 
47772

>  <name>  (92) 
DMPWKZSZFURZLB-ZETCQYMHSA-N

>  <ref_pdb>  (92) 
z0211a

>  <ref_mols>  (92) 
z0211a,z0637a

>  <csv_name>  (92) 
RdRp_knitwork_green_site_rna_tunnel_pure_split4000_batch008.csv

>  <fragmenstein_runtime>  (92) 
8.906141

>  <tags>  (92) 
['Fragmenstein placed']

>  <original ID>  (92) 
DMPWKZSZFURZLB-ZETCQYMHSA-N

>  <fragmenstein_error>  (92) 
None

>  <original SMILES>  (92) 
C[C@H](O)CNC(=O)Nc1ccnc(OCC(F)(F)C(F)F)c1

>  <inchikey>  (92) 
DMPWKZSZFURZLB-ZETCQYMHSA-N

>  <SLURM_JOB_NAME>  (92) 
BulkDock.place:Flavi_NS5_RdRp:RdRp_knitwork_green_site_rna_tunnel_pure_split4000_batch008

>  <scratch_subdir>  (92) 
/opt/xchem-fragalysis-2/maxwin/BulkDock/SCRATCH/217079/C47772-P102

>  <alias>  (92) 
None

>  <SLURM_JOB_ID>  (92) 
217079

>  <exports>  (92) 
['/opt/xchem-fragalysis-2/maxwin/BulkDock/OUTPUTS/RdRp_knitwork_green_site_rna_tunnel_pure_split4000_batch008_217079.sdf']

$$$$
95334
     RDKit          3D

 18 18  0  0  0  0  0  0  0  0999 V2000
  -27.4927  -30.0903  -22.8580 C   0  0  0  0  0  0  0  0  0  0  0  0
  -27.6187  -31.1258  -21.8879 O   0  0  0  0  0  0  0  0  0  0  0  0
  -27.7743  -30.5965  -20.6377 C   0  0  0  0  0  0  0  0  0  0  0  0
  -29.0319  -30.1392  -20.2553 C   0  0  0  0  0  0  0  0  0  0  0  0
  -29.2228  -29.8055  -18.9299 C   0  0  0  0  0  0  0  0  0  0  0  0
  -28.2459  -29.8126  -18.0010 N   0  0  0  0  0  0  0  0  0  0  0  0
  -27.0403  -30.2798  -18.4054 C   0  0  0  0  0  0  0  0  0  0  0  0
  -26.0064  -30.3711  -17.4913 O   0  0  0  0  0  0  0  0  0  0  0  0
  -26.3679  -29.9677  -16.1804 C   0  0  0  0  0  0  0  0  0  0  0  0
  -26.7626  -30.7360  -19.6908 C   0  0  0  0  0  0  0  0  0  0  0  0
  -25.5699  -31.4154  -19.9480 N   0  0  0  0  0  0  0  0  0  0  0  0
  -24.7064  -31.4894  -21.2504 C   0  0  0  0  0  0  0  0  0  0  0  0
  -24.8274  -30.9425  -22.2474 O   0  0  0  0  0  0  0  0  0  0  0  0
  -23.6963  -32.5965  -20.8273 N   0  0  0  0  0  0  0  0  0  0  0  0
  -22.5845  -33.1718  -21.5463 C   0  0  0  0  0  0  0  0  0  0  0  0
  -21.7463  -32.1556  -22.3370 C   0  0  2  0  0  0  0  0  0  0  0  0
  -21.5294  -32.6006  -23.7857 C   0  0  0  0  0  0  0  0  0  0  0  0
  -20.4606  -32.0033  -21.7181 O   0  0  0  0  0  0  0  0  0  0  0  0
  1  2  1  0
  2  3  1  0
  3  4  2  0
  4  5  1  0
  5  6  2  0
  6  7  1  0
  7  8  1  0
  8  9  1  0
  7 10  2  0
 10 11  1  0
 11 12  1  0
 12 13  2  0
 12 14  1  0
 14 15  1  0
 15 16  1  0
 16 17  1  6
 16 18  1  0
 10  3  1  0
M  END
>  <HIPPO Pose ID>  (93) 
95334

>  <fragmenstein_outcome>  (93) 
acceptable

>  <energy_score>  (93) 
-3.872822

>  <distance_score>  (93) 
0.958005

>  <fragmenstein_mode>  (93) 
expansion

>  <HIPPO Compound ID>  (93) 
48228

>  <name>  (93) 
VFVOVIKSBLPRRV-ZETCQYMHSA-N

>  <ref_pdb>  (93) 
z0211a

>  <ref_mols>  (93) 
z0211a,z0637a

>  <csv_name>  (93) 
RdRp_knitwork_green_site_rna_tunnel_pure_split4000_batch008.csv

>  <fragmenstein_runtime>  (93) 
7.19926

>  <tags>  (93) 
['Fragmenstein placed']

>  <original ID>  (93) 
VFVOVIKSBLPRRV-ZETCQYMHSA-N

>  <fragmenstein_error>  (93) 
None

>  <original SMILES>  (93) 
COc1ccnc(OC)c1NC(=O)NC[C@H](C)O

>  <inchikey>  (93) 
VFVOVIKSBLPRRV-ZETCQYMHSA-N

>  <SLURM_JOB_NAME>  (93) 
BulkDock.place:Flavi_NS5_RdRp:RdRp_knitwork_green_site_rna_tunnel_pure_split4000_batch008

>  <scratch_subdir>  (93) 
/opt/xchem-fragalysis-2/maxwin/BulkDock/SCRATCH/217079/C48228-P102

>  <alias>  (93) 
None

>  <SLURM_JOB_ID>  (93) 
217079

>  <exports>  (93) 
['/opt/xchem-fragalysis-2/maxwin/BulkDock/OUTPUTS/RdRp_knitwork_green_site_rna_tunnel_pure_split4000_batch008_217079.sdf']

$$$$
95352
     RDKit          3D

 16 16  0  0  0  0  0  0  0  0999 V2000
  -21.3042  -33.1174  -24.0334 C   0  0  0  0  0  0  0  0  0  0  0  0
  -22.0526  -31.9664  -23.3892 C   0  0  2  0  0  0  0  0  0  0  0  0
  -21.6027  -31.8396  -22.0352 O   0  0  0  0  0  0  0  0  0  0  0  0
  -23.5631  -32.2085  -23.4441 C   0  0  0  0  0  0  0  0  0  0  0  0
  -24.2592  -31.6111  -22.3412 N   0  0  0  0  0  0  0  0  0  0  0  0
  -25.6115  -30.8573  -22.2986 C   0  0  0  0  0  0  0  0  0  0  0  0
  -26.3078  -30.5492  -23.1433 O   0  0  0  0  0  0  0  0  0  0  0  0
  -25.7854  -30.7376  -20.7647 N   0  0  0  0  0  0  0  0  0  0  0  0
  -26.8634  -30.3119  -20.0197 C   0  0  0  0  0  0  0  0  0  0  0  0
  -26.6692  -30.1284  -18.6656 C   0  0  0  0  0  0  0  0  0  0  0  0
  -27.7899  -29.9382  -17.8697 C   0  0  0  0  0  0  0  0  0  0  0  0
  -27.5311  -29.8460  -15.9971 Br  0  0  0  0  0  0  0  0  0  0  0  0
  -29.0589  -29.9572  -18.4309 C   0  0  0  0  0  0  0  0  0  0  0  0
  -30.4567  -29.9865  -17.4460 Cl  0  0  0  0  0  0  0  0  0  0  0  0
  -29.1502  -30.0621  -19.8042 C   0  0  0  0  0  0  0  0  0  0  0  0
  -28.0725  -30.2193  -20.6052 N   0  0  0  0  0  0  0  0  0  0  0  0
  2  1  1  1
  2  3  1  0
  2  4  1  0
  4  5  1  0
  5  6  1  0
  6  7  2  0
  6  8  1  0
  8  9  1  0
  9 10  2  0
 10 11  1  0
 11 12  1  0
 11 13  2  0
 13 14  1  0
 13 15  1  0
 15 16  2  0
 16  9  1  0
M  END
>  <HIPPO Pose ID>  (94) 
95352

>  <fragmenstein_outcome>  (94) 
acceptable

>  <energy_score>  (94) 
-13.814884

>  <distance_score>  (94) 
0.731096

>  <fragmenstein_mode>  (94) 
expansion

>  <HIPPO Compound ID>  (94) 
48272

>  <name>  (94) 
SJGVQJFJUSXJOY-YFKPBYRVSA-N

>  <ref_pdb>  (94) 
z0211a

>  <ref_mols>  (94) 
z0211a,z0637a

>  <csv_name>  (94) 
RdRp_knitwork_green_site_rna_tunnel_pure_split4000_batch008.csv

>  <fragmenstein_runtime>  (94) 
2.610258

>  <tags>  (94) 
['Fragmenstein placed']

>  <original ID>  (94) 
SJGVQJFJUSXJOY-YFKPBYRVSA-N

>  <fragmenstein_error>  (94) 
None

>  <original SMILES>  (94) 
C[C@H](O)CNC(=O)Nc1cc(Br)c(Cl)cn1

>  <inchikey>  (94) 
SJGVQJFJUSXJOY-YFKPBYRVSA-N

>  <SLURM_JOB_NAME>  (94) 
BulkDock.place:Flavi_NS5_RdRp:RdRp_knitwork_green_site_rna_tunnel_pure_split4000_batch008

>  <scratch_subdir>  (94) 
/opt/xchem-fragalysis-2/maxwin/BulkDock/SCRATCH/217079/C48272-P102

>  <alias>  (94) 
None

>  <SLURM_JOB_ID>  (94) 
217079

>  <exports>  (94) 
['/opt/xchem-fragalysis-2/maxwin/BulkDock/OUTPUTS/RdRp_knitwork_green_site_rna_tunnel_pure_split4000_batch008_217079.sdf']

$$$$
95362
     RDKit          3D

 16 16  0  0  0  0  0  0  0  0999 V2000
  -21.1845  -33.2421  -24.1213 C   0  0  0  0  0  0  0  0  0  0  0  0
  -21.9201  -32.0736  -23.4976 C   0  0  2  0  0  0  0  0  0  0  0  0
  -21.5091  -31.9668  -22.1261 O   0  0  0  0  0  0  0  0  0  0  0  0
  -23.4333  -32.3027  -23.5938 C   0  0  0  0  0  0  0  0  0  0  0  0
  -24.1166  -31.7049  -22.4863 N   0  0  0  0  0  0  0  0  0  0  0  0
  -25.3437  -30.7592  -22.4558 C   0  0  0  0  0  0  0  0  0  0  0  0
  -25.9226  -30.2738  -23.3113 O   0  0  0  0  0  0  0  0  0  0  0  0
  -25.6151  -30.7493  -20.9285 N   0  0  0  0  0  0  0  0  0  0  0  0
  -26.6724  -30.2309  -20.2134 C   0  0  0  0  0  0  0  0  0  0  0  0
  -26.5052  -30.2058  -18.8367 C   0  0  0  0  0  0  0  0  0  0  0  0
  -27.6029  -29.9263  -18.0432 C   0  0  0  0  0  0  0  0  0  0  0  0
  -27.3726  -29.9019  -16.1622 Br  0  0  0  0  0  0  0  0  0  0  0  0
  -28.8411  -29.7372  -18.6284 C   0  0  0  0  0  0  0  0  0  0  0  0
  -30.2274  -29.5963  -17.6526 Cl  0  0  0  0  0  0  0  0  0  0  0  0
  -28.9089  -29.7200  -20.0104 C   0  0  0  0  0  0  0  0  0  0  0  0
  -27.8369  -29.9312  -20.8148 N   0  0  0  0  0  0  0  0  0  0  0  0
  2  1  1  1
  2  3  1  0
  2  4  1  0
  4  5  1  0
  5  6  1  0
  6  7  2  0
  6  8  1  0
  8  9  1  0
  9 10  2  0
 10 11  1  0
 11 12  1  0
 11 13  2  0
 13 14  1  0
 13 15  1  0
 15 16  2  0
 16  9  1  0
M  END
>  <HIPPO Pose ID>  (95) 
95362

>  <fragmenstein_outcome>  (95) 
acceptable

>  <energy_score>  (95) 
-13.548469

>  <distance_score>  (95) 
0.862099

>  <fragmenstein_mode>  (95) 
expansion

>  <HIPPO Compound ID>  (95) 
48272

>  <name>  (95) 
SJGVQJFJUSXJOY-YFKPBYRVSA-N

>  <ref_pdb>  (95) 
z0637a

>  <ref_mols>  (95) 
z0211a,z0637a

>  <csv_name>  (95) 
RdRp_knitwork_green_site_rna_tunnel_pure_split4000_batch008.csv

>  <fragmenstein_runtime>  (95) 
4.659227

>  <tags>  (95) 
['Fragmenstein placed']

>  <original ID>  (95) 
SJGVQJFJUSXJOY-YFKPBYRVSA-N

>  <fragmenstein_error>  (95) 
None

>  <original SMILES>  (95) 
C[C@H](O)CNC(=O)Nc1cc(Br)c(Cl)cn1

>  <inchikey>  (95) 
SJGVQJFJUSXJOY-YFKPBYRVSA-N

>  <SLURM_JOB_NAME>  (95) 
BulkDock.place:Flavi_NS5_RdRp:RdRp_knitwork_green_site_rna_tunnel_pure_split4000_batch008

>  <scratch_subdir>  (95) 
/opt/xchem-fragalysis-2/maxwin/BulkDock/SCRATCH/217079/C48272-P151

>  <alias>  (95) 
None

>  <SLURM_JOB_ID>  (95) 
217079

>  <exports>  (95) 
['/opt/xchem-fragalysis-2/maxwin/BulkDock/OUTPUTS/RdRp_knitwork_green_site_rna_tunnel_pure_split4000_batch008_217079.sdf']

$$$$
95429
     RDKit          3D

 19 19  0  0  0  0  0  0  0  0999 V2000
  -24.8839  -30.6164  -17.2071 C   0  0  0  0  0  0  0  0  0  0  0  0
  -25.6311  -29.4780  -16.5261 C   0  0  0  0  0  0  0  0  0  0  0  0
  -26.9607  -29.8569  -15.8612 C   0  0  2  0  0  0  0  0  0  0  0  0
  -26.8633  -31.1309  -15.0329 C   0  0  0  0  0  0  0  0  0  0  0  0
  -28.2098  -29.6947  -16.5632 O   0  0  0  0  0  0  0  0  0  0  0  0
  -28.2821  -29.8800  -17.9202 C   0  0  0  0  0  0  0  0  0  0  0  0
  -29.5395  -30.0212  -18.4780 C   0  0  0  0  0  0  0  0  0  0  0  0
  -29.6270  -30.3796  -19.8170 C   0  0  0  0  0  0  0  0  0  0  0  0
  -28.4556  -30.6591  -20.5122 C   0  0  0  0  0  0  0  0  0  0  0  0
  -27.2481  -30.4775  -19.8717 C   0  0  0  0  0  0  0  0  0  0  0  0
  -26.0608  -30.8242  -20.4724 N   0  0  0  0  0  0  0  0  0  0  0  0
  -25.7613  -31.8761  -21.5688 C   0  0  0  0  0  0  0  0  0  0  0  0
  -26.4455  -32.6406  -22.0596 O   0  0  0  0  0  0  0  0  0  0  0  0
  -24.2849  -31.5128  -21.8727 N   0  0  0  0  0  0  0  0  0  0  0  0
  -23.4069  -31.9738  -22.9181 C   0  0  0  0  0  0  0  0  0  0  0  0
  -22.0952  -32.5779  -22.4212 C   0  0  1  0  0  0  0  0  0  0  0  0
  -21.2337  -32.9889  -23.6062 C   0  0  0  0  0  0  0  0  0  0  0  0
  -21.3366  -31.6493  -21.6500 O   0  0  0  0  0  0  0  0  0  0  0  0
  -27.1580  -29.9960  -18.6323 N   0  0  0  0  0  0  0  0  0  0  0  0
  1  2  1  0
  2  3  1  0
  3  4  1  6
  3  5  1  0
  5  6  1  0
  6  7  2  0
  7  8  1  0
  8  9  2  0
  9 10  1  0
 10 11  1  0
 11 12  1  0
 12 13  2  0
 12 14  1  0
 14 15  1  0
 15 16  1  0
 16 17  1  6
 16 18  1  0
 10 19  2  0
 19  6  1  0
M  END
>  <HIPPO Pose ID>  (96) 
95429

>  <fragmenstein_outcome>  (96) 
acceptable

>  <energy_score>  (96) 
-37.035682

>  <distance_score>  (96) 
0.993633

>  <fragmenstein_mode>  (96) 
expansion

>  <HIPPO Compound ID>  (96) 
48650

>  <name>  (96) 
KLOBQGFTDAOZOI-ZJUUUORDSA-N

>  <ref_pdb>  (96) 
z0211a

>  <ref_mols>  (96) 
z0211a,z0637a

>  <csv_name>  (96) 
RdRp_knitwork_green_site_rna_tunnel_pure_split4000_batch008.csv

>  <fragmenstein_runtime>  (96) 
6.693183

>  <tags>  (96) 
['Fragmenstein placed']

>  <original ID>  (96) 
KLOBQGFTDAOZOI-ZJUUUORDSA-N

>  <fragmenstein_error>  (96) 
None

>  <original SMILES>  (96) 
CC[C@H](C)Oc1cccc(NC(=O)NC[C@@H](C)O)n1

>  <inchikey>  (96) 
KLOBQGFTDAOZOI-ZJUUUORDSA-N

>  <SLURM_JOB_NAME>  (96) 
BulkDock.place:Flavi_NS5_RdRp:RdRp_knitwork_green_site_rna_tunnel_pure_split4000_batch008

>  <scratch_subdir>  (96) 
/opt/xchem-fragalysis-2/maxwin/BulkDock/SCRATCH/217079/C48650-P102

>  <alias>  (96) 
None

>  <SLURM_JOB_ID>  (96) 
217079

>  <exports>  (96) 
['/opt/xchem-fragalysis-2/maxwin/BulkDock/OUTPUTS/RdRp_knitwork_green_site_rna_tunnel_pure_split4000_batch008_217079.sdf']

$$$$
95457
     RDKit          3D

 15 15  0  0  0  0  0  0  0  0999 V2000
  -25.8165  -29.7265  -17.4932 C   0  0  0  0  0  0  0  0  0  0  0  0
  -26.9647  -29.9070  -18.4303 C   0  0  0  0  0  0  0  0  0  0  0  0
  -28.2445  -29.5217  -18.0452 C   0  0  0  0  0  0  0  0  0  0  0  0
  -29.3513  -29.6801  -18.7986 N   0  0  0  0  0  0  0  0  0  0  0  0
  -29.1862  -30.2298  -20.0140 C   0  0  0  0  0  0  0  0  0  0  0  0
  -27.9660  -30.6759  -20.4830 C   0  0  0  0  0  0  0  0  0  0  0  0
  -26.8439  -30.5400  -19.6681 C   0  0  0  0  0  0  0  0  0  0  0  0
  -25.6212  -31.0663  -20.0893 N   0  0  0  0  0  0  0  0  0  0  0  0
  -25.3041  -32.1297  -21.1842 C   0  0  0  0  0  0  0  0  0  0  0  0
  -25.9949  -32.6500  -21.9268 O   0  0  0  0  0  0  0  0  0  0  0  0
  -23.7603  -32.1977  -21.0333 N   0  0  0  0  0  0  0  0  0  0  0  0
  -22.7875  -33.0090  -21.7280 C   0  0  0  0  0  0  0  0  0  0  0  0
  -22.1629  -32.2218  -22.8823 C   0  0  2  0  0  0  0  0  0  0  0  0
  -21.3619  -33.1104  -23.8123 C   0  0  0  0  0  0  0  0  0  0  0  0
  -21.2603  -31.2623  -22.3327 O   0  0  0  0  0  0  0  0  0  0  0  0
  1  2  1  0
  2  3  2  0
  3  4  1  0
  4  5  2  0
  5  6  1  0
  6  7  2  0
  7  8  1  0
  8  9  1  0
  9 10  2  0
  9 11  1  0
 11 12  1  0
 12 13  1  0
 13 14  1  6
 13 15  1  0
  7  2  1  0
M  END
>  <HIPPO Pose ID>  (97) 
95457

>  <fragmenstein_outcome>  (97) 
acceptable

>  <energy_score>  (97) 
-27.76968

>  <distance_score>  (97) 
0.914888

>  <fragmenstein_mode>  (97) 
expansion

>  <HIPPO Compound ID>  (97) 
48678

>  <name>  (97) 
QVKHESCHDGANBY-QMMMGPOBSA-N

>  <ref_pdb>  (97) 
z0211a

>  <ref_mols>  (97) 
z0211a,z0637a

>  <csv_name>  (97) 
RdRp_knitwork_green_site_rna_tunnel_pure_split4000_batch008.csv

>  <fragmenstein_runtime>  (97) 
2.689179

>  <tags>  (97) 
['Fragmenstein placed']

>  <original ID>  (97) 
QVKHESCHDGANBY-QMMMGPOBSA-N

>  <fragmenstein_error>  (97) 
None

>  <original SMILES>  (97) 
Cc1cnccc1NC(=O)NC[C@H](C)O

>  <inchikey>  (97) 
QVKHESCHDGANBY-QMMMGPOBSA-N

>  <SLURM_JOB_NAME>  (97) 
BulkDock.place:Flavi_NS5_RdRp:RdRp_knitwork_green_site_rna_tunnel_pure_split4000_batch008

>  <scratch_subdir>  (97) 
/opt/xchem-fragalysis-2/maxwin/BulkDock/SCRATCH/217079/C48678-P102

>  <alias>  (97) 
None

>  <SLURM_JOB_ID>  (97) 
217079

>  <exports>  (97) 
['/opt/xchem-fragalysis-2/maxwin/BulkDock/OUTPUTS/RdRp_knitwork_green_site_rna_tunnel_pure_split4000_batch008_217079.sdf']

$$$$
95463
     RDKit          3D

 15 15  0  0  0  0  0  0  0  0999 V2000
  -25.8940  -30.3734  -17.8825 C   0  0  0  0  0  0  0  0  0  0  0  0
  -27.0499  -30.0577  -18.7785 C   0  0  0  0  0  0  0  0  0  0  0  0
  -28.2833  -29.7341  -18.2238 C   0  0  0  0  0  0  0  0  0  0  0  0
  -29.3879  -29.4567  -18.9429 N   0  0  0  0  0  0  0  0  0  0  0  0
  -29.2523  -29.4382  -20.2820 C   0  0  0  0  0  0  0  0  0  0  0  0
  -28.0672  -29.7127  -20.9353 C   0  0  0  0  0  0  0  0  0  0  0  0
  -26.9688  -30.0918  -20.1753 C   0  0  0  0  0  0  0  0  0  0  0  0
  -25.8563  -30.6530  -20.8019 N   0  0  0  0  0  0  0  0  0  0  0  0
  -25.4455  -30.6696  -22.3108 C   0  0  0  0  0  0  0  0  0  0  0  0
  -25.9289  -30.1607  -23.2137 O   0  0  0  0  0  0  0  0  0  0  0  0
  -24.2519  -31.6607  -22.2370 N   0  0  0  0  0  0  0  0  0  0  0  0
  -23.4908  -32.2824  -23.2875 C   0  0  0  0  0  0  0  0  0  0  0  0
  -21.9874  -32.0129  -23.1929 C   0  0  2  0  0  0  0  0  0  0  0  0
  -21.2314  -33.0630  -23.9884 C   0  0  0  0  0  0  0  0  0  0  0  0
  -21.5499  -32.0863  -21.8313 O   0  0  0  0  0  0  0  0  0  0  0  0
  1  2  1  0
  2  3  2  0
  3  4  1  0
  4  5  2  0
  5  6  1  0
  6  7  2  0
  7  8  1  0
  8  9  1  0
  9 10  2  0
  9 11  1  0
 11 12  1  0
 12 13  1  0
 13 14  1  6
 13 15  1  0
  7  2  1  0
M  END
>  <HIPPO Pose ID>  (98) 
95463

>  <fragmenstein_outcome>  (98) 
acceptable

>  <energy_score>  (98) 
-25.652742

>  <distance_score>  (98) 
0.686102

>  <fragmenstein_mode>  (98) 
expansion

>  <HIPPO Compound ID>  (98) 
48678

>  <name>  (98) 
QVKHESCHDGANBY-QMMMGPOBSA-N

>  <ref_pdb>  (98) 
z0637a

>  <ref_mols>  (98) 
z0211a,z0637a

>  <csv_name>  (98) 
RdRp_knitwork_green_site_rna_tunnel_pure_split4000_batch008.csv

>  <fragmenstein_runtime>  (98) 
3.674616

>  <tags>  (98) 
['Fragmenstein placed']

>  <original ID>  (98) 
QVKHESCHDGANBY-QMMMGPOBSA-N

>  <fragmenstein_error>  (98) 
None

>  <original SMILES>  (98) 
Cc1cnccc1NC(=O)NC[C@H](C)O

>  <inchikey>  (98) 
QVKHESCHDGANBY-QMMMGPOBSA-N

>  <SLURM_JOB_NAME>  (98) 
BulkDock.place:Flavi_NS5_RdRp:RdRp_knitwork_green_site_rna_tunnel_pure_split4000_batch008

>  <scratch_subdir>  (98) 
/opt/xchem-fragalysis-2/maxwin/BulkDock/SCRATCH/217079/C48678-P151

>  <alias>  (98) 
None

>  <SLURM_JOB_ID>  (98) 
217079

>  <exports>  (98) 
['/opt/xchem-fragalysis-2/maxwin/BulkDock/OUTPUTS/RdRp_knitwork_green_site_rna_tunnel_pure_split4000_batch008_217079.sdf']

$$$$
95495
     RDKit          3D

 19 19  0  0  0  0  0  0  0  0999 V2000
  -27.9171  -29.7352  -16.9108 C   0  0  0  0  0  0  0  0  0  0  0  0
  -27.7621  -29.7665  -18.4013 C   0  0  0  0  0  0  0  0  0  0  0  0
  -26.5429  -30.0476  -19.0159 C   0  0  0  0  0  0  0  0  0  0  0  0
  -26.4684  -30.0361  -20.4072 C   0  0  0  0  0  0  0  0  0  0  0  0
  -25.3930  -30.5986  -21.0638 N   0  0  0  0  0  0  0  0  0  0  0  0
  -25.1204  -30.7712  -22.5862 C   0  0  0  0  0  0  0  0  0  0  0  0
  -25.7141  -30.4031  -23.4868 O   0  0  0  0  0  0  0  0  0  0  0  0
  -23.8712  -31.6701  -22.5165 N   0  0  0  0  0  0  0  0  0  0  0  0
  -23.1725  -32.3634  -23.5489 C   0  0  0  0  0  0  0  0  0  0  0  0
  -21.6717  -32.1905  -23.3798 C   0  0  2  0  0  0  0  0  0  0  0  0
  -20.9647  -33.1301  -24.3333 C   0  0  0  0  0  0  0  0  0  0  0  0
  -21.3104  -32.5263  -22.0332 O   0  0  0  0  0  0  0  0  0  0  0  0
  -27.5670  -29.6224  -21.1381 C   0  0  0  0  0  0  0  0  0  0  0  0
  -28.7610  -29.3947  -20.5869 N   0  0  0  0  0  0  0  0  0  0  0  0
  -28.8616  -29.5683  -19.2423 C   0  0  0  0  0  0  0  0  0  0  0  0
  -30.2367  -29.8675  -18.7258 C   0  0  0  0  0  0  0  0  0  0  0  0
  -30.5400  -29.2678  -17.5415 F   0  0  0  0  0  0  0  0  0  0  0  0
  -31.2128  -29.5428  -19.6137 F   0  0  0  0  0  0  0  0  0  0  0  0
  -30.3596  -31.2095  -18.4864 F   0  0  0  0  0  0  0  0  0  0  0  0
  1  2  1  0
  2  3  2  0
  3  4  1  0
  4  5  1  0
  5  6  1  0
  6  7  2  0
  6  8  1  0
  8  9  1  0
  9 10  1  0
 10 11  1  6
 10 12  1  0
  4 13  2  0
 13 14  1  0
 14 15  2  0
 15 16  1  0
 16 17  1  0
 16 18  1  0
 16 19  1  0
 15  2  1  0
M  END
>  <HIPPO Pose ID>  (99) 
95495

>  <fragmenstein_outcome>  (99) 
acceptable

>  <energy_score>  (99) 
-10.346549

>  <distance_score>  (99) 
0.898051

>  <fragmenstein_mode>  (99) 
expansion

>  <HIPPO Compound ID>  (99) 
48762

>  <name>  (99) 
UAEOVPPQFOWZLJ-ZETCQYMHSA-N

>  <ref_pdb>  (99) 
z0637a

>  <ref_mols>  (99) 
z0211a,z0637a

>  <csv_name>  (99) 
RdRp_knitwork_green_site_rna_tunnel_pure_split4000_batch008.csv

>  <fragmenstein_runtime>  (99) 
3.734495

>  <tags>  (99) 
['Fragmenstein placed']

>  <original ID>  (99) 
UAEOVPPQFOWZLJ-ZETCQYMHSA-N

>  <fragmenstein_error>  (99) 
None

>  <original SMILES>  (99) 
Cc1cc(NC(=O)NC[C@H](C)O)cnc1C(F)(F)F

>  <inchikey>  (99) 
UAEOVPPQFOWZLJ-ZETCQYMHSA-N

>  <SLURM_JOB_NAME>  (99) 
BulkDock.place:Flavi_NS5_RdRp:RdRp_knitwork_green_site_rna_tunnel_pure_split4000_batch008

>  <scratch_subdir>  (99) 
/opt/xchem-fragalysis-2/maxwin/BulkDock/SCRATCH/217079/C48762-P151

>  <alias>  (99) 
None

>  <SLURM_JOB_ID>  (99) 
217079

>  <exports>  (99) 
['/opt/xchem-fragalysis-2/maxwin/BulkDock/OUTPUTS/RdRp_knitwork_green_site_rna_tunnel_pure_split4000_batch008_217079.sdf']

$$$$
95498
     RDKit          3D

 16 16  0  0  0  0  0  0  0  0999 V2000
  -30.3628  -30.2262  -20.3190 C   0  0  0  0  0  0  0  0  0  0  0  0
  -29.0789  -30.1217  -19.5689 C   0  0  0  0  0  0  0  0  0  0  0  0
  -29.0540  -29.6578  -18.2601 C   0  0  0  0  0  0  0  0  0  0  0  0
  -27.9310  -29.4834  -17.5366 N   0  0  0  0  0  0  0  0  0  0  0  0
  -26.7813  -29.8634  -18.1353 C   0  0  0  0  0  0  0  0  0  0  0  0
  -25.6576  -29.7267  -17.4182 F   0  0  0  0  0  0  0  0  0  0  0  0
  -26.6950  -30.4248  -19.4041 C   0  0  0  0  0  0  0  0  0  0  0  0
  -25.4823  -30.9262  -19.8747 N   0  0  0  0  0  0  0  0  0  0  0  0
  -25.1783  -31.8547  -21.0861 C   0  0  0  0  0  0  0  0  0  0  0  0
  -25.8722  -32.2630  -21.8928 O   0  0  0  0  0  0  0  0  0  0  0  0
  -23.6547  -32.0654  -20.8731 N   0  0  0  0  0  0  0  0  0  0  0  0
  -22.7204  -32.9090  -21.5792 C   0  0  0  0  0  0  0  0  0  0  0  0
  -22.1882  -32.2165  -22.8374 C   0  0  2  0  0  0  0  0  0  0  0  0
  -21.5010  -33.1938  -23.7707 C   0  0  0  0  0  0  0  0  0  0  0  0
  -21.2080  -31.2556  -22.4485 O   0  0  0  0  0  0  0  0  0  0  0  0
  -27.8689  -30.5196  -20.1454 C   0  0  0  0  0  0  0  0  0  0  0  0
  1  2  1  0
  2  3  2  0
  3  4  1  0
  4  5  2  0
  5  6  1  0
  5  7  1  0
  7  8  1  0
  8  9  1  0
  9 10  2  0
  9 11  1  0
 11 12  1  0
 12 13  1  0
 13 14  1  6
 13 15  1  0
  7 16  2  0
 16  2  1  0
M  END
>  <HIPPO Pose ID>  (100) 
95498

>  <fragmenstein_outcome>  (100) 
acceptable

>  <energy_score>  (100) 
-19.341799

>  <distance_score>  (100) 
0.979351

>  <fragmenstein_mode>  (100) 
expansion

>  <HIPPO Compound ID>  (100) 
48805

>  <name>  (100) 
MBRVRBXCPHXKBK-ZETCQYMHSA-N

>  <ref_pdb>  (100) 
z0211a

>  <ref_mols>  (100) 
z0211a,z0637a

>  <csv_name>  (100) 
RdRp_knitwork_green_site_rna_tunnel_pure_split4000_batch008.csv

>  <fragmenstein_runtime>  (100) 
4.358976

>  <tags>  (100) 
['Fragmenstein placed']

>  <original ID>  (100) 
MBRVRBXCPHXKBK-ZETCQYMHSA-N

>  <fragmenstein_error>  (100) 
None

>  <original SMILES>  (100) 
Cc1cnc(F)c(NC(=O)NC[C@H](C)O)c1

>  <inchikey>  (100) 
MBRVRBXCPHXKBK-ZETCQYMHSA-N

>  <SLURM_JOB_NAME>  (100) 
BulkDock.place:Flavi_NS5_RdRp:RdRp_knitwork_green_site_rna_tunnel_pure_split4000_batch008

>  <scratch_subdir>  (100) 
/opt/xchem-fragalysis-2/maxwin/BulkDock/SCRATCH/217079/C48805-P102

>  <alias>  (100) 
None

>  <SLURM_JOB_ID>  (100) 
217079

>  <exports>  (100) 
['/opt/xchem-fragalysis-2/maxwin/BulkDock/OUTPUTS/RdRp_knitwork_green_site_rna_tunnel_pure_split4000_batch008_217079.sdf']

$$$$
95507
     RDKit          3D

 16 16  0  0  0  0  0  0  0  0999 V2000
  -30.6136  -29.8202  -20.5452 C   0  0  0  0  0  0  0  0  0  0  0  0
  -29.2882  -29.7550  -19.8625 C   0  0  0  0  0  0  0  0  0  0  0  0
  -29.2042  -29.6514  -18.4787 C   0  0  0  0  0  0  0  0  0  0  0  0
  -28.0500  -29.7236  -17.7857 N   0  0  0  0  0  0  0  0  0  0  0  0
  -26.9417  -29.9972  -18.5083 C   0  0  0  0  0  0  0  0  0  0  0  0
  -25.8019  -30.1674  -17.8230 F   0  0  0  0  0  0  0  0  0  0  0  0
  -26.9143  -30.1361  -19.8932 C   0  0  0  0  0  0  0  0  0  0  0  0
  -25.7924  -30.6405  -20.5491 N   0  0  0  0  0  0  0  0  0  0  0  0
  -25.4658  -30.7248  -22.0740 C   0  0  0  0  0  0  0  0  0  0  0  0
  -26.0415  -30.3233  -22.9748 O   0  0  0  0  0  0  0  0  0  0  0  0
  -24.1866  -31.6010  -22.0109 N   0  0  0  0  0  0  0  0  0  0  0  0
  -23.4320  -32.2250  -23.0645 C   0  0  0  0  0  0  0  0  0  0  0  0
  -21.9255  -31.9803  -22.9904 C   0  0  2  0  0  0  0  0  0  0  0  0
  -21.2064  -33.0034  -23.8556 C   0  0  0  0  0  0  0  0  0  0  0  0
  -21.4597  -32.1330  -21.6470 O   0  0  0  0  0  0  0  0  0  0  0  0
  -28.1060  -29.9503  -20.5791 C   0  0  0  0  0  0  0  0  0  0  0  0
  1  2  1  0
  2  3  2  0
  3  4  1  0
  4  5  2  0
  5  6  1  0
  5  7  1  0
  7  8  1  0
  8  9  1  0
  9 10  2  0
  9 11  1  0
 11 12  1  0
 12 13  1  0
 13 14  1  6
 13 15  1  0
  7 16  2  0
 16  2  1  0
M  END
>  <HIPPO Pose ID>  (101) 
95507

>  <fragmenstein_outcome>  (101) 
acceptable

>  <energy_score>  (101) 
-14.905299

>  <distance_score>  (101) 
0.54399

>  <fragmenstein_mode>  (101) 
expansion

>  <HIPPO Compound ID>  (101) 
48805

>  <name>  (101) 
MBRVRBXCPHXKBK-ZETCQYMHSA-N

>  <ref_pdb>  (101) 
z0637a

>  <ref_mols>  (101) 
z0211a,z0637a

>  <csv_name>  (101) 
RdRp_knitwork_green_site_rna_tunnel_pure_split4000_batch008.csv

>  <fragmenstein_runtime>  (101) 
2.952829

>  <tags>  (101) 
['Fragmenstein placed']

>  <original ID>  (101) 
MBRVRBXCPHXKBK-ZETCQYMHSA-N

>  <fragmenstein_error>  (101) 
None

>  <original SMILES>  (101) 
Cc1cnc(F)c(NC(=O)NC[C@H](C)O)c1

>  <inchikey>  (101) 
MBRVRBXCPHXKBK-ZETCQYMHSA-N

>  <SLURM_JOB_NAME>  (101) 
BulkDock.place:Flavi_NS5_RdRp:RdRp_knitwork_green_site_rna_tunnel_pure_split4000_batch008

>  <scratch_subdir>  (101) 
/opt/xchem-fragalysis-2/maxwin/BulkDock/SCRATCH/217079/C48805-P151

>  <alias>  (101) 
None

>  <SLURM_JOB_ID>  (101) 
217079

>  <exports>  (101) 
['/opt/xchem-fragalysis-2/maxwin/BulkDock/OUTPUTS/RdRp_knitwork_green_site_rna_tunnel_pure_split4000_batch008_217079.sdf']

$$$$
95543
     RDKit          3D

 19 19  0  0  0  0  0  0  0  0999 V2000
  -28.2605  -29.7115  -16.9928 C   0  0  0  0  0  0  0  0  0  0  0  0
  -27.9598  -29.6627  -18.4571 C   0  0  0  0  0  0  0  0  0  0  0  0
  -26.7056  -29.9414  -18.9975 C   0  0  0  0  0  0  0  0  0  0  0  0
  -26.5476  -29.9036  -20.3845 C   0  0  0  0  0  0  0  0  0  0  0  0
  -25.4623  -30.4974  -20.9990 N   0  0  0  0  0  0  0  0  0  0  0  0
  -25.1301  -30.6707  -22.5112 C   0  0  0  0  0  0  0  0  0  0  0  0
  -25.6731  -30.2788  -23.4343 O   0  0  0  0  0  0  0  0  0  0  0  0
  -23.9125  -31.6110  -22.3946 N   0  0  0  0  0  0  0  0  0  0  0  0
  -23.1920  -32.3215  -23.4025 C   0  0  0  0  0  0  0  0  0  0  0  0
  -21.6892  -32.1970  -23.1948 C   0  0  2  0  0  0  0  0  0  0  0  0
  -20.9788  -33.1232  -24.1614 C   0  0  0  0  0  0  0  0  0  0  0  0
  -21.3547  -32.5684  -21.8506 O   0  0  0  0  0  0  0  0  0  0  0  0
  -27.5911  -29.4377  -21.1695 C   0  0  0  0  0  0  0  0  0  0  0  0
  -28.8129  -29.1929  -20.6887 N   0  0  0  0  0  0  0  0  0  0  0  0
  -28.9742  -29.4273  -19.3743 C   0  0  0  0  0  0  0  0  0  0  0  0
  -30.2364  -29.7884  -19.0144 O   0  0  0  0  0  0  0  0  0  0  0  0
  -30.4950  -30.9615  -19.7720 C   0  0  0  0  0  0  0  0  0  0  0  0
  -30.7367  -31.9674  -18.8908 F   0  0  0  0  0  0  0  0  0  0  0  0
  -31.6261  -30.7407  -20.4769 F   0  0  0  0  0  0  0  0  0  0  0  0
  1  2  1  0
  2  3  2  0
  3  4  1  0
  4  5  1  0
  5  6  1  0
  6  7  2  0
  6  8  1  0
  8  9  1  0
  9 10  1  0
 10 11  1  6
 10 12  1  0
  4 13  2  0
 13 14  1  0
 14 15  2  0
 15 16  1  0
 16 17  1  0
 17 18  1  0
 17 19  1  0
 15  2  1  0
M  END
>  <HIPPO Pose ID>  (102) 
95543

>  <fragmenstein_outcome>  (102) 
acceptable

>  <energy_score>  (102) 
-68.683415

>  <distance_score>  (102) 
0.840039

>  <fragmenstein_mode>  (102) 
expansion

>  <HIPPO Compound ID>  (102) 
48963

>  <name>  (102) 
VMTWJJBBFMAADO-ZETCQYMHSA-N

>  <ref_pdb>  (102) 
z0637a

>  <ref_mols>  (102) 
z0211a,z0637a

>  <csv_name>  (102) 
RdRp_knitwork_green_site_rna_tunnel_pure_split4000_batch008.csv

>  <fragmenstein_runtime>  (102) 
5.46483

>  <tags>  (102) 
['Fragmenstein placed']

>  <original ID>  (102) 
VMTWJJBBFMAADO-ZETCQYMHSA-N

>  <fragmenstein_error>  (102) 
None

>  <original SMILES>  (102) 
Cc1cc(NC(=O)NC[C@H](C)O)cnc1OC(F)F

>  <inchikey>  (102) 
VMTWJJBBFMAADO-ZETCQYMHSA-N

>  <SLURM_JOB_NAME>  (102) 
BulkDock.place:Flavi_NS5_RdRp:RdRp_knitwork_green_site_rna_tunnel_pure_split4000_batch008

>  <scratch_subdir>  (102) 
/opt/xchem-fragalysis-2/maxwin/BulkDock/SCRATCH/217079/C48963-P151

>  <alias>  (102) 
None

>  <SLURM_JOB_ID>  (102) 
217079

>  <exports>  (102) 
['/opt/xchem-fragalysis-2/maxwin/BulkDock/OUTPUTS/RdRp_knitwork_green_site_rna_tunnel_pure_split4000_batch008_217079.sdf']

$$$$
95571
     RDKit          3D

 16 16  0  0  0  0  0  0  0  0999 V2000
  -28.7374  -29.5198  -16.4848 C   0  0  0  0  0  0  0  0  0  0  0  0
  -28.4764  -29.8001  -17.9319 C   0  0  0  0  0  0  0  0  0  0  0  0
  -29.6127  -29.9452  -18.6595 N   0  0  0  0  0  0  0  0  0  0  0  0
  -29.4977  -30.3219  -19.9386 C   0  0  0  0  0  0  0  0  0  0  0  0
  -28.2887  -30.6326  -20.5122 C   0  0  0  0  0  0  0  0  0  0  0  0
  -27.1250  -30.4785  -19.7620 C   0  0  0  0  0  0  0  0  0  0  0  0
  -25.9299  -30.8470  -20.3750 N   0  0  0  0  0  0  0  0  0  0  0  0
  -25.6548  -31.8808  -21.5075 C   0  0  0  0  0  0  0  0  0  0  0  0
  -26.3602  -32.6104  -22.0241 O   0  0  0  0  0  0  0  0  0  0  0  0
  -24.1677  -31.5535  -21.7944 N   0  0  0  0  0  0  0  0  0  0  0  0
  -23.2994  -32.0090  -22.8489 C   0  0  0  0  0  0  0  0  0  0  0  0
  -21.9687  -32.5834  -22.3777 C   0  0  1  0  0  0  0  0  0  0  0  0
  -21.1256  -32.9723  -23.5825 C   0  0  0  0  0  0  0  0  0  0  0  0
  -21.2194  -31.6379  -21.6201 O   0  0  0  0  0  0  0  0  0  0  0  0
  -27.1882  -29.9642  -18.4656 C   0  0  0  0  0  0  0  0  0  0  0  0
  -25.9588  -29.7713  -17.6310 C   0  0  0  0  0  0  0  0  0  0  0  0
  1  2  1  0
  2  3  2  0
  3  4  1  0
  4  5  2  0
  5  6  1  0
  6  7  1  0
  7  8  1  0
  8  9  2  0
  8 10  1  0
 10 11  1  0
 11 12  1  0
 12 13  1  6
 12 14  1  0
  6 15  2  0
 15 16  1  0
 15  2  1  0
M  END
>  <HIPPO Pose ID>  (103) 
95571

>  <fragmenstein_outcome>  (103) 
acceptable

>  <energy_score>  (103) 
-0.976411

>  <distance_score>  (103) 
0.730015

>  <fragmenstein_mode>  (103) 
expansion

>  <HIPPO Compound ID>  (103) 
49276

>  <name>  (103) 
DQQTYTMGHKALNX-SSDOTTSWSA-N

>  <ref_pdb>  (103) 
z0211a

>  <ref_mols>  (103) 
z0211a,z0637a

>  <csv_name>  (103) 
RdRp_knitwork_green_site_rna_tunnel_pure_split4000_batch008.csv

>  <fragmenstein_runtime>  (103) 
2.842467

>  <tags>  (103) 
['Fragmenstein placed']

>  <original ID>  (103) 
DQQTYTMGHKALNX-SSDOTTSWSA-N

>  <fragmenstein_error>  (103) 
None

>  <original SMILES>  (103) 
Cc1nccc(NC(=O)NC[C@@H](C)O)c1C

>  <inchikey>  (103) 
DQQTYTMGHKALNX-SSDOTTSWSA-N

>  <SLURM_JOB_NAME>  (103) 
BulkDock.place:Flavi_NS5_RdRp:RdRp_knitwork_green_site_rna_tunnel_pure_split4000_batch008

>  <scratch_subdir>  (103) 
/opt/xchem-fragalysis-2/maxwin/BulkDock/SCRATCH/217079/C49276-P102

>  <alias>  (103) 
None

>  <SLURM_JOB_ID>  (103) 
217079

>  <exports>  (103) 
['/opt/xchem-fragalysis-2/maxwin/BulkDock/OUTPUTS/RdRp_knitwork_green_site_rna_tunnel_pure_split4000_batch008_217079.sdf']

$$$$
95578
     RDKit          3D

 16 16  0  0  0  0  0  0  0  0999 V2000
  -28.7659  -29.6612  -16.7458 C   0  0  0  0  0  0  0  0  0  0  0  0
  -28.4611  -29.7501  -18.2123 C   0  0  0  0  0  0  0  0  0  0  0  0
  -29.5376  -29.5387  -19.0047 N   0  0  0  0  0  0  0  0  0  0  0  0
  -29.3519  -29.5012  -20.3341 C   0  0  0  0  0  0  0  0  0  0  0  0
  -28.1335  -29.7165  -20.9350 C   0  0  0  0  0  0  0  0  0  0  0  0
  -27.0523  -30.0444  -20.1301 C   0  0  0  0  0  0  0  0  0  0  0  0
  -25.8991  -30.5651  -20.7272 N   0  0  0  0  0  0  0  0  0  0  0  0
  -25.4921  -30.6558  -22.2371 C   0  0  0  0  0  0  0  0  0  0  0  0
  -26.0153  -30.2481  -23.1688 O   0  0  0  0  0  0  0  0  0  0  0  0
  -24.2260  -31.5484  -22.1057 N   0  0  0  0  0  0  0  0  0  0  0  0
  -23.4237  -32.1829  -23.1184 C   0  0  0  0  0  0  0  0  0  0  0  0
  -22.0182  -32.5256  -22.6339 C   0  0  1  0  0  0  0  0  0  0  0  0
  -21.1497  -32.9962  -23.7872 C   0  0  0  0  0  0  0  0  0  0  0  0
  -21.3886  -31.4123  -22.0078 O   0  0  0  0  0  0  0  0  0  0  0  0
  -27.1789  -29.9877  -18.7304 C   0  0  0  0  0  0  0  0  0  0  0  0
  -25.9934  -30.2032  -17.8342 C   0  0  0  0  0  0  0  0  0  0  0  0
  1  2  1  0
  2  3  2  0
  3  4  1  0
  4  5  2  0
  5  6  1  0
  6  7  1  0
  7  8  1  0
  8  9  2  0
  8 10  1  0
 10 11  1  0
 11 12  1  0
 12 13  1  6
 12 14  1  0
  6 15  2  0
 15 16  1  0
 15  2  1  0
M  END
>  <HIPPO Pose ID>  (104) 
95578

>  <fragmenstein_outcome>  (104) 
acceptable

>  <energy_score>  (104) 
-4.809261

>  <distance_score>  (104) 
0.70671

>  <fragmenstein_mode>  (104) 
expansion

>  <HIPPO Compound ID>  (104) 
49276

>  <name>  (104) 
DQQTYTMGHKALNX-SSDOTTSWSA-N

>  <ref_pdb>  (104) 
z0637a

>  <ref_mols>  (104) 
z0211a,z0637a

>  <csv_name>  (104) 
RdRp_knitwork_green_site_rna_tunnel_pure_split4000_batch008.csv

>  <fragmenstein_runtime>  (104) 
4.776948

>  <tags>  (104) 
['Fragmenstein placed']

>  <original ID>  (104) 
DQQTYTMGHKALNX-SSDOTTSWSA-N

>  <fragmenstein_error>  (104) 
None

>  <original SMILES>  (104) 
Cc1nccc(NC(=O)NC[C@@H](C)O)c1C

>  <inchikey>  (104) 
DQQTYTMGHKALNX-SSDOTTSWSA-N

>  <SLURM_JOB_NAME>  (104) 
BulkDock.place:Flavi_NS5_RdRp:RdRp_knitwork_green_site_rna_tunnel_pure_split4000_batch008

>  <scratch_subdir>  (104) 
/opt/xchem-fragalysis-2/maxwin/BulkDock/SCRATCH/217079/C49276-P151

>  <alias>  (104) 
None

>  <SLURM_JOB_ID>  (104) 
217079

>  <exports>  (104) 
['/opt/xchem-fragalysis-2/maxwin/BulkDock/OUTPUTS/RdRp_knitwork_green_site_rna_tunnel_pure_split4000_batch008_217079.sdf']

$$$$
95593
     RDKit          3D

 15 15  0  0  0  0  0  0  0  0999 V2000
  -28.3148  -29.7147  -16.4672 C   0  0  0  0  0  0  0  0  0  0  0  0
  -28.3158  -29.9093  -17.9520 C   0  0  0  0  0  0  0  0  0  0  0  0
  -29.5305  -29.8960  -18.6274 C   0  0  0  0  0  0  0  0  0  0  0  0
  -29.5269  -30.0008  -20.0069 C   0  0  0  0  0  0  0  0  0  0  0  0
  -28.3148  -30.1634  -20.6586 C   0  0  0  0  0  0  0  0  0  0  0  0
  -27.1495  -30.2730  -19.9084 C   0  0  0  0  0  0  0  0  0  0  0  0
  -25.9723  -30.6165  -20.5469 N   0  0  0  0  0  0  0  0  0  0  0  0
  -25.6674  -30.8123  -22.0610 C   0  0  0  0  0  0  0  0  0  0  0  0
  -26.3284  -30.6415  -22.9712 O   0  0  0  0  0  0  0  0  0  0  0  0
  -24.2376  -31.4043  -21.9589 N   0  0  0  0  0  0  0  0  0  0  0  0
  -23.3952  -31.9852  -22.9710 C   0  0  0  0  0  0  0  0  0  0  0  0
  -21.9204  -32.0847  -22.5949 C   0  0  2  0  0  0  0  0  0  0  0  0
  -21.1564  -32.8762  -23.6465 C   0  0  0  0  0  0  0  0  0  0  0  0
  -21.7817  -32.7446  -21.3349 O   0  0  0  0  0  0  0  0  0  0  0  0
  -27.1258  -30.1287  -18.5693 N   0  0  0  0  0  0  0  0  0  0  0  0
  1  2  1  0
  2  3  2  0
  3  4  1  0
  4  5  2  0
  5  6  1  0
  6  7  1  0
  7  8  1  0
  8  9  2  0
  8 10  1  0
 10 11  1  0
 11 12  1  0
 12 13  1  6
 12 14  1  0
  6 15  2  0
 15  2  1  0
M  END
>  <HIPPO Pose ID>  (105) 
95593

>  <fragmenstein_outcome>  (105) 
acceptable

>  <energy_score>  (105) 
-7.75607

>  <distance_score>  (105) 
0.553023

>  <fragmenstein_mode>  (105) 
expansion

>  <HIPPO Compound ID>  (105) 
49374

>  <name>  (105) 
WXCSLBRGRKDJSX-QMMMGPOBSA-N

>  <ref_pdb>  (105) 
z0211a

>  <ref_mols>  (105) 
z0211a,z0637a

>  <csv_name>  (105) 
RdRp_knitwork_green_site_rna_tunnel_pure_split4000_batch008.csv

>  <fragmenstein_runtime>  (105) 
2.765121

>  <tags>  (105) 
['Fragmenstein placed']

>  <original ID>  (105) 
WXCSLBRGRKDJSX-QMMMGPOBSA-N

>  <fragmenstein_error>  (105) 
None

>  <original SMILES>  (105) 
Cc1cccc(NC(=O)NC[C@H](C)O)n1

>  <inchikey>  (105) 
WXCSLBRGRKDJSX-QMMMGPOBSA-N

>  <SLURM_JOB_NAME>  (105) 
BulkDock.place:Flavi_NS5_RdRp:RdRp_knitwork_green_site_rna_tunnel_pure_split4000_batch008

>  <scratch_subdir>  (105) 
/opt/xchem-fragalysis-2/maxwin/BulkDock/SCRATCH/217079/C49374-P102

>  <alias>  (105) 
None

>  <SLURM_JOB_ID>  (105) 
217079

>  <exports>  (105) 
['/opt/xchem-fragalysis-2/maxwin/BulkDock/OUTPUTS/RdRp_knitwork_green_site_rna_tunnel_pure_split4000_batch008_217079.sdf']

$$$$
95600
     RDKit          3D

 15 15  0  0  0  0  0  0  0  0999 V2000
  -28.4699  -29.7411  -16.7815 C   0  0  0  0  0  0  0  0  0  0  0  0
  -28.3662  -29.8182  -18.2756 C   0  0  0  0  0  0  0  0  0  0  0  0
  -29.4945  -29.5534  -19.0367 C   0  0  0  0  0  0  0  0  0  0  0  0
  -29.3683  -29.4699  -20.4136 C   0  0  0  0  0  0  0  0  0  0  0  0
  -28.1299  -29.7002  -20.9916 C   0  0  0  0  0  0  0  0  0  0  0  0
  -27.0810  -30.0921  -20.1787 C   0  0  0  0  0  0  0  0  0  0  0  0
  -25.9482  -30.6435  -20.7426 N   0  0  0  0  0  0  0  0  0  0  0  0
  -25.4735  -30.6781  -22.2305 C   0  0  0  0  0  0  0  0  0  0  0  0
  -25.9235  -30.1892  -23.1605 O   0  0  0  0  0  0  0  0  0  0  0  0
  -24.2722  -31.6538  -22.0908 N   0  0  0  0  0  0  0  0  0  0  0  0
  -23.4589  -32.2829  -23.1000 C   0  0  0  0  0  0  0  0  0  0  0  0
  -21.9622  -32.0056  -22.9610 C   0  0  2  0  0  0  0  0  0  0  0  0
  -21.1787  -33.0171  -23.7814 C   0  0  0  0  0  0  0  0  0  0  0  0
  -21.5537  -32.1333  -21.5965 O   0  0  0  0  0  0  0  0  0  0  0  0
  -27.1671  -30.1276  -18.8304 N   0  0  0  0  0  0  0  0  0  0  0  0
  1  2  1  0
  2  3  2  0
  3  4  1  0
  4  5  2  0
  5  6  1  0
  6  7  1  0
  7  8  1  0
  8  9  2  0
  8 10  1  0
 10 11  1  0
 11 12  1  0
 12 13  1  6
 12 14  1  0
  6 15  2  0
 15  2  1  0
M  END
>  <HIPPO Pose ID>  (106) 
95600

>  <fragmenstein_outcome>  (106) 
acceptable

>  <energy_score>  (106) 
-6.948278

>  <distance_score>  (106) 
0.563151

>  <fragmenstein_mode>  (106) 
expansion

>  <HIPPO Compound ID>  (106) 
49374

>  <name>  (106) 
WXCSLBRGRKDJSX-QMMMGPOBSA-N

>  <ref_pdb>  (106) 
z0637a

>  <ref_mols>  (106) 
z0211a,z0637a

>  <csv_name>  (106) 
RdRp_knitwork_green_site_rna_tunnel_pure_split4000_batch008.csv

>  <fragmenstein_runtime>  (106) 
2.230866

>  <tags>  (106) 
['Fragmenstein placed']

>  <original ID>  (106) 
WXCSLBRGRKDJSX-QMMMGPOBSA-N

>  <fragmenstein_error>  (106) 
None

>  <original SMILES>  (106) 
Cc1cccc(NC(=O)NC[C@H](C)O)n1

>  <inchikey>  (106) 
WXCSLBRGRKDJSX-QMMMGPOBSA-N

>  <SLURM_JOB_NAME>  (106) 
BulkDock.place:Flavi_NS5_RdRp:RdRp_knitwork_green_site_rna_tunnel_pure_split4000_batch008

>  <scratch_subdir>  (106) 
/opt/xchem-fragalysis-2/maxwin/BulkDock/SCRATCH/217079/C49374-P151

>  <alias>  (106) 
None

>  <SLURM_JOB_ID>  (106) 
217079

>  <exports>  (106) 
['/opt/xchem-fragalysis-2/maxwin/BulkDock/OUTPUTS/RdRp_knitwork_green_site_rna_tunnel_pure_split4000_batch008_217079.sdf']

$$$$
95607
     RDKit          3D

 16 16  0  0  0  0  0  0  0  0999 V2000
  -27.4166  -29.6208  -16.2552 C   0  0  0  0  0  0  0  0  0  0  0  0
  -27.6839  -29.8138  -17.7116 C   0  0  0  0  0  0  0  0  0  0  0  0
  -26.5845  -29.9875  -18.4802 N   0  0  0  0  0  0  0  0  0  0  0  0
  -26.7798  -30.4758  -19.7131 C   0  0  0  0  0  0  0  0  0  0  0  0
  -25.6555  -30.8836  -20.3840 N   0  0  0  0  0  0  0  0  0  0  0  0
  -25.5007  -31.8358  -21.5930 C   0  0  0  0  0  0  0  0  0  0  0  0
  -26.2767  -32.4612  -22.1385 O   0  0  0  0  0  0  0  0  0  0  0  0
  -24.0032  -31.6080  -21.9043 N   0  0  0  0  0  0  0  0  0  0  0  0
  -23.2074  -32.0459  -23.0176 C   0  0  0  0  0  0  0  0  0  0  0  0
  -21.8669  -32.6443  -22.6120 C   0  0  1  0  0  0  0  0  0  0  0  0
  -21.0538  -32.9611  -23.8549 C   0  0  0  0  0  0  0  0  0  0  0  0
  -21.1041  -31.7408  -21.8152 O   0  0  0  0  0  0  0  0  0  0  0  0
  -28.0353  -30.6213  -20.2902 C   0  0  0  0  0  0  0  0  0  0  0  0
  -29.1607  -30.3481  -19.5238 C   0  0  0  0  0  0  0  0  0  0  0  0
  -28.9768  -30.0032  -18.1932 C   0  0  0  0  0  0  0  0  0  0  0  0
  -30.4380  -30.0254  -17.0111 Br  0  0  0  0  0  0  0  0  0  0  0  0
  1  2  1  0
  2  3  2  0
  3  4  1  0
  4  5  1  0
  5  6  1  0
  6  7  2  0
  6  8  1  0
  8  9  1  0
  9 10  1  0
 10 11  1  6
 10 12  1  0
  4 13  2  0
 13 14  1  0
 14 15  2  0
 15 16  1  0
 15  2  1  0
M  END
>  <HIPPO Pose ID>  (107) 
95607

>  <fragmenstein_outcome>  (107) 
acceptable

>  <energy_score>  (107) 
-9.857061

>  <distance_score>  (107) 
0.925742

>  <fragmenstein_mode>  (107) 
expansion

>  <HIPPO Compound ID>  (107) 
49469

>  <name>  (107) 
OBKPHNSXNDIZQL-ZCFIWIBFSA-N

>  <ref_pdb>  (107) 
z0211a

>  <ref_mols>  (107) 
z0211a,z0637a

>  <csv_name>  (107) 
RdRp_knitwork_green_site_rna_tunnel_pure_split4000_batch008.csv

>  <fragmenstein_runtime>  (107) 
4.301163

>  <tags>  (107) 
['Fragmenstein placed']

>  <original ID>  (107) 
OBKPHNSXNDIZQL-ZCFIWIBFSA-N

>  <fragmenstein_error>  (107) 
None

>  <original SMILES>  (107) 
Cc1nc(NC(=O)NC[C@@H](C)O)ccc1Br

>  <inchikey>  (107) 
OBKPHNSXNDIZQL-ZCFIWIBFSA-N

>  <SLURM_JOB_NAME>  (107) 
BulkDock.place:Flavi_NS5_RdRp:RdRp_knitwork_green_site_rna_tunnel_pure_split4000_batch008

>  <scratch_subdir>  (107) 
/opt/xchem-fragalysis-2/maxwin/BulkDock/SCRATCH/217079/C49469-P102

>  <alias>  (107) 
None

>  <SLURM_JOB_ID>  (107) 
217079

>  <exports>  (107) 
['/opt/xchem-fragalysis-2/maxwin/BulkDock/OUTPUTS/RdRp_knitwork_green_site_rna_tunnel_pure_split4000_batch008_217079.sdf']

$$$$
95616
     RDKit          3D

 16 16  0  0  0  0  0  0  0  0999 V2000
  -26.9851  -29.8786  -16.3761 C   0  0  0  0  0  0  0  0  0  0  0  0
  -27.3617  -29.9082  -17.8236 C   0  0  0  0  0  0  0  0  0  0  0  0
  -26.3365  -30.1554  -18.6656 N   0  0  0  0  0  0  0  0  0  0  0  0
  -26.5857  -30.1974  -19.9868 C   0  0  0  0  0  0  0  0  0  0  0  0
  -25.5236  -30.6658  -20.7191 N   0  0  0  0  0  0  0  0  0  0  0  0
  -25.3617  -30.8475  -22.2495 C   0  0  0  0  0  0  0  0  0  0  0  0
  -26.0604  -30.5614  -23.1032 O   0  0  0  0  0  0  0  0  0  0  0  0
  -24.0220  -31.6220  -22.2703 N   0  0  0  0  0  0  0  0  0  0  0  0
  -23.3419  -32.2720  -23.3520 C   0  0  0  0  0  0  0  0  0  0  0  0
  -21.9330  -32.6852  -22.9364 C   0  0  1  0  0  0  0  0  0  0  0  0
  -21.0891  -33.0322  -24.1457 C   0  0  0  0  0  0  0  0  0  0  0  0
  -21.2880  -31.6527  -22.1893 O   0  0  0  0  0  0  0  0  0  0  0  0
  -27.8306  -29.9439  -20.5325 C   0  0  0  0  0  0  0  0  0  0  0  0
  -28.8992  -29.7520  -19.6576 C   0  0  0  0  0  0  0  0  0  0  0  0
  -28.6628  -29.7679  -18.2838 C   0  0  0  0  0  0  0  0  0  0  0  0
  -30.0874  -29.6907  -17.0680 Br  0  0  0  0  0  0  0  0  0  0  0  0
  1  2  1  0
  2  3  2  0
  3  4  1  0
  4  5  1  0
  5  6  1  0
  6  7  2  0
  6  8  1  0
  8  9  1  0
  9 10  1  0
 10 11  1  6
 10 12  1  0
  4 13  2  0
 13 14  1  0
 14 15  2  0
 15 16  1  0
 15  2  1  0
M  END
>  <HIPPO Pose ID>  (108) 
95616

>  <fragmenstein_outcome>  (108) 
acceptable

>  <energy_score>  (108) 
-11.546674

>  <distance_score>  (108) 
0.984358

>  <fragmenstein_mode>  (108) 
expansion

>  <HIPPO Compound ID>  (108) 
49469

>  <name>  (108) 
OBKPHNSXNDIZQL-ZCFIWIBFSA-N

>  <ref_pdb>  (108) 
z0637a

>  <ref_mols>  (108) 
z0211a,z0637a

>  <csv_name>  (108) 
RdRp_knitwork_green_site_rna_tunnel_pure_split4000_batch008.csv

>  <fragmenstein_runtime>  (108) 
3.905257

>  <tags>  (108) 
['Fragmenstein placed']

>  <original ID>  (108) 
OBKPHNSXNDIZQL-ZCFIWIBFSA-N

>  <fragmenstein_error>  (108) 
None

>  <original SMILES>  (108) 
Cc1nc(NC(=O)NC[C@@H](C)O)ccc1Br

>  <inchikey>  (108) 
OBKPHNSXNDIZQL-ZCFIWIBFSA-N

>  <SLURM_JOB_NAME>  (108) 
BulkDock.place:Flavi_NS5_RdRp:RdRp_knitwork_green_site_rna_tunnel_pure_split4000_batch008

>  <scratch_subdir>  (108) 
/opt/xchem-fragalysis-2/maxwin/BulkDock/SCRATCH/217079/C49469-P151

>  <alias>  (108) 
None

>  <SLURM_JOB_ID>  (108) 
217079

>  <exports>  (108) 
['/opt/xchem-fragalysis-2/maxwin/BulkDock/OUTPUTS/RdRp_knitwork_green_site_rna_tunnel_pure_split4000_batch008_217079.sdf']

$$$$
95622
     RDKit          3D

 16 16  0  0  0  0  0  0  0  0999 V2000
  -30.6768  -30.1633  -20.2347 C   0  0  0  0  0  0  0  0  0  0  0  0
  -29.3194  -30.0156  -19.6329 C   0  0  0  0  0  0  0  0  0  0  0  0
  -28.1889  -30.2566  -20.3919 C   0  0  0  0  0  0  0  0  0  0  0  0
  -26.9536  -30.3121  -19.7544 C   0  0  0  0  0  0  0  0  0  0  0  0
  -25.8311  -30.6917  -20.4812 N   0  0  0  0  0  0  0  0  0  0  0  0
  -25.6455  -30.8991  -22.0132 C   0  0  0  0  0  0  0  0  0  0  0  0
  -26.3673  -30.7118  -22.8720 O   0  0  0  0  0  0  0  0  0  0  0  0
  -24.2319  -31.5291  -22.0148 N   0  0  0  0  0  0  0  0  0  0  0  0
  -23.4062  -31.9625  -23.1110 C   0  0  0  0  0  0  0  0  0  0  0  0
  -22.0243  -32.4226  -22.6621 C   0  0  1  0  0  0  0  0  0  0  0  0
  -21.1768  -32.8583  -23.8436 C   0  0  0  0  0  0  0  0  0  0  0  0
  -21.3477  -31.3734  -21.9723 O   0  0  0  0  0  0  0  0  0  0  0  0
  -26.8707  -30.0676  -18.3939 C   0  0  0  0  0  0  0  0  0  0  0  0
  -28.0517  -29.7957  -17.7108 C   0  0  0  0  0  0  0  0  0  0  0  0
  -28.0674  -29.6384  -16.2278 C   0  0  0  0  0  0  0  0  0  0  0  0
  -29.2625  -29.7835  -18.3066 N   0  0  0  0  0  0  0  0  0  0  0  0
  1  2  1  0
  2  3  2  0
  3  4  1  0
  4  5  1  0
  5  6  1  0
  6  7  2  0
  6  8  1  0
  8  9  1  0
  9 10  1  0
 10 11  1  6
 10 12  1  0
  4 13  2  0
 13 14  1  0
 14 15  1  0
 14 16  2  0
 16  2  1  0
M  END
>  <HIPPO Pose ID>  (109) 
95622

>  <fragmenstein_outcome>  (109) 
acceptable

>  <energy_score>  (109) 
-31.210765

>  <distance_score>  (109) 
0.850745

>  <fragmenstein_mode>  (109) 
expansion

>  <HIPPO Compound ID>  (109) 
49486

>  <name>  (109) 
NLGNOTJMVOPEEP-SECBINFHSA-N

>  <ref_pdb>  (109) 
z0211a

>  <ref_mols>  (109) 
z0211a,z0637a

>  <csv_name>  (109) 
RdRp_knitwork_green_site_rna_tunnel_pure_split4000_batch008.csv

>  <fragmenstein_runtime>  (109) 
4.276626

>  <tags>  (109) 
['Fragmenstein placed']

>  <original ID>  (109) 
NLGNOTJMVOPEEP-SECBINFHSA-N

>  <fragmenstein_error>  (109) 
None

>  <original SMILES>  (109) 
Cc1cc(NC(=O)NC[C@@H](C)O)cc(C)n1

>  <inchikey>  (109) 
NLGNOTJMVOPEEP-SECBINFHSA-N

>  <SLURM_JOB_NAME>  (109) 
BulkDock.place:Flavi_NS5_RdRp:RdRp_knitwork_green_site_rna_tunnel_pure_split4000_batch008

>  <scratch_subdir>  (109) 
/opt/xchem-fragalysis-2/maxwin/BulkDock/SCRATCH/217079/C49486-P102

>  <alias>  (109) 
None

>  <SLURM_JOB_ID>  (109) 
217079

>  <exports>  (109) 
['/opt/xchem-fragalysis-2/maxwin/BulkDock/OUTPUTS/RdRp_knitwork_green_site_rna_tunnel_pure_split4000_batch008_217079.sdf']

$$$$
95628
     RDKit          3D

 16 16  0  0  0  0  0  0  0  0999 V2000
  -30.6001  -29.7251  -20.6512 C   0  0  0  0  0  0  0  0  0  0  0  0
  -29.2929  -29.6987  -19.9314 C   0  0  0  0  0  0  0  0  0  0  0  0
  -28.1103  -29.9091  -20.6204 C   0  0  0  0  0  0  0  0  0  0  0  0
  -26.9544  -30.1534  -19.8940 C   0  0  0  0  0  0  0  0  0  0  0  0
  -25.8106  -30.6154  -20.5442 N   0  0  0  0  0  0  0  0  0  0  0  0
  -25.4880  -30.7233  -22.0718 C   0  0  0  0  0  0  0  0  0  0  0  0
  -26.0896  -30.3768  -22.9790 O   0  0  0  0  0  0  0  0  0  0  0  0
  -24.1636  -31.5284  -21.9952 N   0  0  0  0  0  0  0  0  0  0  0  0
  -23.3833  -32.1388  -23.0373 C   0  0  0  0  0  0  0  0  0  0  0  0
  -21.9920  -32.5533  -22.5752 C   0  0  1  0  0  0  0  0  0  0  0  0
  -21.1300  -32.9698  -23.7538 C   0  0  0  0  0  0  0  0  0  0  0  0
  -21.3469  -31.4949  -21.8734 O   0  0  0  0  0  0  0  0  0  0  0  0
  -26.9899  -30.0774  -18.5053 C   0  0  0  0  0  0  0  0  0  0  0  0
  -28.2027  -29.7760  -17.8930 C   0  0  0  0  0  0  0  0  0  0  0  0
  -28.3481  -29.6726  -16.4101 C   0  0  0  0  0  0  0  0  0  0  0  0
  -29.3459  -29.6172  -18.5870 N   0  0  0  0  0  0  0  0  0  0  0  0
  1  2  1  0
  2  3  2  0
  3  4  1  0
  4  5  1  0
  5  6  1  0
  6  7  2  0
  6  8  1  0
  8  9  1  0
  9 10  1  0
 10 11  1  6
 10 12  1  0
  4 13  2  0
 13 14  1  0
 14 15  1  0
 14 16  2  0
 16  2  1  0
M  END
>  <HIPPO Pose ID>  (110) 
95628

>  <fragmenstein_outcome>  (110) 
acceptable

>  <energy_score>  (110) 
-28.968537

>  <distance_score>  (110) 
0.791962

>  <fragmenstein_mode>  (110) 
expansion

>  <HIPPO Compound ID>  (110) 
49486

>  <name>  (110) 
NLGNOTJMVOPEEP-SECBINFHSA-N

>  <ref_pdb>  (110) 
z0637a

>  <ref_mols>  (110) 
z0211a,z0637a

>  <csv_name>  (110) 
RdRp_knitwork_green_site_rna_tunnel_pure_split4000_batch008.csv

>  <fragmenstein_runtime>  (110) 
4.405504

>  <tags>  (110) 
['Fragmenstein placed']

>  <original ID>  (110) 
NLGNOTJMVOPEEP-SECBINFHSA-N

>  <fragmenstein_error>  (110) 
None

>  <original SMILES>  (110) 
Cc1cc(NC(=O)NC[C@@H](C)O)cc(C)n1

>  <inchikey>  (110) 
NLGNOTJMVOPEEP-SECBINFHSA-N

>  <SLURM_JOB_NAME>  (110) 
BulkDock.place:Flavi_NS5_RdRp:RdRp_knitwork_green_site_rna_tunnel_pure_split4000_batch008

>  <scratch_subdir>  (110) 
/opt/xchem-fragalysis-2/maxwin/BulkDock/SCRATCH/217079/C49486-P151

>  <alias>  (110) 
None

>  <SLURM_JOB_ID>  (110) 
217079

>  <exports>  (110) 
['/opt/xchem-fragalysis-2/maxwin/BulkDock/OUTPUTS/RdRp_knitwork_green_site_rna_tunnel_pure_split4000_batch008_217079.sdf']

$$$$
95634
     RDKit          3D

 16 16  0  0  0  0  0  0  0  0999 V2000
  -28.9953  -29.5580  -16.7054 C   0  0  0  0  0  0  0  0  0  0  0  0
  -28.5400  -29.7984  -18.1116 C   0  0  0  0  0  0  0  0  0  0  0  0
  -29.5357  -29.8873  -19.0274 N   0  0  0  0  0  0  0  0  0  0  0  0
  -29.1981  -30.1866  -20.2941 C   0  0  0  0  0  0  0  0  0  0  0  0
  -27.9089  -30.4897  -20.6860 C   0  0  0  0  0  0  0  0  0  0  0  0
  -26.8932  -30.4223  -19.7357 C   0  0  0  0  0  0  0  0  0  0  0  0
  -25.6057  -30.8693  -20.0523 N   0  0  0  0  0  0  0  0  0  0  0  0
  -25.0832  -31.6330  -21.3064 C   0  0  0  0  0  0  0  0  0  0  0  0
  -25.6215  -31.9245  -22.2672 O   0  0  0  0  0  0  0  0  0  0  0  0
  -23.6423  -31.9564  -20.8267 N   0  0  0  0  0  0  0  0  0  0  0  0
  -22.6246  -32.7919  -21.4204 C   0  0  0  0  0  0  0  0  0  0  0  0
  -22.0838  -32.1880  -22.7214 C   0  0  2  0  0  0  0  0  0  0  0  0
  -21.3640  -33.2187  -23.5674 C   0  0  0  0  0  0  0  0  0  0  0  0
  -21.1266  -31.1842  -22.3909 O   0  0  0  0  0  0  0  0  0  0  0  0
  -27.1969  -29.9876  -18.4433 C   0  0  0  0  0  0  0  0  0  0  0  0
  -25.9407  -29.7824  -17.2778 Cl  0  0  0  0  0  0  0  0  0  0  0  0
  1  2  1  0
  2  3  2  0
  3  4  1  0
  4  5  2  0
  5  6  1  0
  6  7  1  0
  7  8  1  0
  8  9  2  0
  8 10  1  0
 10 11  1  0
 11 12  1  0
 12 13  1  6
 12 14  1  0
  6 15  2  0
 15 16  1  0
 15  2  1  0
M  END
>  <HIPPO Pose ID>  (111) 
95634

>  <fragmenstein_outcome>  (111) 
acceptable

>  <energy_score>  (111) 
-0.685529

>  <distance_score>  (111) 
0.809086

>  <fragmenstein_mode>  (111) 
expansion

>  <HIPPO Compound ID>  (111) 
49634

>  <name>  (111) 
GWRUXBZSIANIIA-LURJTMIESA-N

>  <ref_pdb>  (111) 
z0211a

>  <ref_mols>  (111) 
z0211a,z0637a

>  <csv_name>  (111) 
RdRp_knitwork_green_site_rna_tunnel_pure_split4000_batch008.csv

>  <fragmenstein_runtime>  (111) 
4.239038

>  <tags>  (111) 
['Fragmenstein placed']

>  <original ID>  (111) 
GWRUXBZSIANIIA-LURJTMIESA-N

>  <fragmenstein_error>  (111) 
None

>  <original SMILES>  (111) 
Cc1nccc(NC(=O)NC[C@H](C)O)c1Cl

>  <inchikey>  (111) 
GWRUXBZSIANIIA-LURJTMIESA-N

>  <SLURM_JOB_NAME>  (111) 
BulkDock.place:Flavi_NS5_RdRp:RdRp_knitwork_green_site_rna_tunnel_pure_split4000_batch008

>  <scratch_subdir>  (111) 
/opt/xchem-fragalysis-2/maxwin/BulkDock/SCRATCH/217079/C49634-P102

>  <alias>  (111) 
None

>  <SLURM_JOB_ID>  (111) 
217079

>  <exports>  (111) 
['/opt/xchem-fragalysis-2/maxwin/BulkDock/OUTPUTS/RdRp_knitwork_green_site_rna_tunnel_pure_split4000_batch008_217079.sdf']

$$$$
95683
     RDKit          3D

 17 17  0  0  0  0  0  0  0  0999 V2000
  -30.5898  -30.0300  -20.4991 C   0  0  0  0  0  0  0  0  0  0  0  0
  -29.2557  -29.9401  -19.8434 C   0  0  0  0  0  0  0  0  0  0  0  0
  -28.1015  -30.1788  -20.5699 C   0  0  0  0  0  0  0  0  0  0  0  0
  -26.8890  -30.2863  -19.8940 C   0  0  0  0  0  0  0  0  0  0  0  0
  -25.7489  -30.6661  -20.5912 N   0  0  0  0  0  0  0  0  0  0  0  0
  -25.5204  -30.8608  -22.1190 C   0  0  0  0  0  0  0  0  0  0  0  0
  -26.2159  -30.6613  -22.9968 O   0  0  0  0  0  0  0  0  0  0  0  0
  -24.1121  -31.4990  -22.0854 N   0  0  0  0  0  0  0  0  0  0  0  0
  -23.3385  -32.0988  -23.1345 C   0  0  0  0  0  0  0  0  0  0  0  0
  -21.8402  -32.1099  -22.8517 C   0  0  2  0  0  0  0  0  0  0  0  0
  -21.1248  -32.9789  -23.8716 C   0  0  0  0  0  0  0  0  0  0  0  0
  -21.5911  -32.6296  -21.5425 O   0  0  0  0  0  0  0  0  0  0  0  0
  -26.8471  -30.0899  -18.5263 C   0  0  0  0  0  0  0  0  0  0  0  0
  -28.0524  -29.8369  -17.8874 C   0  0  0  0  0  0  0  0  0  0  0  0
  -28.1248  -29.7783  -16.4618 C   0  0  0  0  0  0  0  0  0  0  0  0
  -28.1383  -29.7848  -15.3016 N   0  0  0  0  0  0  0  0  0  0  0  0
  -29.2471  -29.7679  -18.5109 N   0  0  0  0  0  0  0  0  0  0  0  0
  1  2  1  0
  2  3  2  0
  3  4  1  0
  4  5  1  0
  5  6  1  0
  6  7  2  0
  6  8  1  0
  8  9  1  0
  9 10  1  0
 10 11  1  6
 10 12  1  0
  4 13  2  0
 13 14  1  0
 14 15  1  0
 15 16  3  0
 14 17  2  0
 17  2  1  0
M  END
>  <HIPPO Pose ID>  (112) 
95683

>  <fragmenstein_outcome>  (112) 
acceptable

>  <energy_score>  (112) 
-11.851605

>  <distance_score>  (112) 
0.591494

>  <fragmenstein_mode>  (112) 
expansion

>  <HIPPO Compound ID>  (112) 
49902

>  <name>  (112) 
JDBGZCQVYCOVGK-QMMMGPOBSA-N

>  <ref_pdb>  (112) 
z0211a

>  <ref_mols>  (112) 
z0211a,z0637a

>  <csv_name>  (112) 
RdRp_knitwork_green_site_rna_tunnel_pure_split4000_batch008.csv

>  <fragmenstein_runtime>  (112) 
2.796559

>  <tags>  (112) 
['Fragmenstein placed']

>  <original ID>  (112) 
JDBGZCQVYCOVGK-QMMMGPOBSA-N

>  <fragmenstein_error>  (112) 
None

>  <original SMILES>  (112) 
Cc1cc(NC(=O)NC[C@H](C)O)cc(C#N)n1

>  <inchikey>  (112) 
JDBGZCQVYCOVGK-QMMMGPOBSA-N

>  <SLURM_JOB_NAME>  (112) 
BulkDock.place:Flavi_NS5_RdRp:RdRp_knitwork_green_site_rna_tunnel_pure_split4000_batch008

>  <scratch_subdir>  (112) 
/opt/xchem-fragalysis-2/maxwin/BulkDock/SCRATCH/217079/C49902-P102

>  <alias>  (112) 
None

>  <SLURM_JOB_ID>  (112) 
217079

>  <exports>  (112) 
['/opt/xchem-fragalysis-2/maxwin/BulkDock/OUTPUTS/RdRp_knitwork_green_site_rna_tunnel_pure_split4000_batch008_217079.sdf']

$$$$
95689
     RDKit          3D

 17 17  0  0  0  0  0  0  0  0999 V2000
  -30.5731  -29.6508  -20.7923 C   0  0  0  0  0  0  0  0  0  0  0  0
  -29.2595  -29.6404  -20.0866 C   0  0  0  0  0  0  0  0  0  0  0  0
  -28.0790  -29.8483  -20.7851 C   0  0  0  0  0  0  0  0  0  0  0  0
  -26.9155  -30.1032  -20.0717 C   0  0  0  0  0  0  0  0  0  0  0  0
  -25.7871  -30.5962  -20.7214 N   0  0  0  0  0  0  0  0  0  0  0  0
  -25.4648  -30.7048  -22.2475 C   0  0  0  0  0  0  0  0  0  0  0  0
  -26.0529  -30.3340  -23.1540 O   0  0  0  0  0  0  0  0  0  0  0  0
  -24.1676  -31.5512  -22.1725 N   0  0  0  0  0  0  0  0  0  0  0  0
  -23.4049  -32.1797  -23.2153 C   0  0  0  0  0  0  0  0  0  0  0  0
  -21.8991  -32.0999  -22.9734 C   0  0  2  0  0  0  0  0  0  0  0  0
  -21.1645  -32.9902  -23.9623 C   0  0  0  0  0  0  0  0  0  0  0  0
  -21.5927  -32.5381  -21.6442 O   0  0  0  0  0  0  0  0  0  0  0  0
  -26.9368  -30.0362  -18.6857 C   0  0  0  0  0  0  0  0  0  0  0  0
  -28.1485  -29.7475  -18.0753 C   0  0  0  0  0  0  0  0  0  0  0  0
  -28.2657  -29.6841  -16.6510 C   0  0  0  0  0  0  0  0  0  0  0  0
  -28.3076  -29.6563  -15.4910 N   0  0  0  0  0  0  0  0  0  0  0  0
  -29.3054  -29.5778  -18.7436 N   0  0  0  0  0  0  0  0  0  0  0  0
  1  2  1  0
  2  3  2  0
  3  4  1  0
  4  5  1  0
  5  6  1  0
  6  7  2  0
  6  8  1  0
  8  9  1  0
  9 10  1  0
 10 11  1  6
 10 12  1  0
  4 13  2  0
 13 14  1  0
 14 15  1  0
 15 16  3  0
 14 17  2  0
 17  2  1  0
M  END
>  <HIPPO Pose ID>  (113) 
95689

>  <fragmenstein_outcome>  (113) 
acceptable

>  <energy_score>  (113) 
-10.63523

>  <distance_score>  (113) 
0.594968

>  <fragmenstein_mode>  (113) 
expansion

>  <HIPPO Compound ID>  (113) 
49902

>  <name>  (113) 
JDBGZCQVYCOVGK-QMMMGPOBSA-N

>  <ref_pdb>  (113) 
z0637a

>  <ref_mols>  (113) 
z0211a,z0637a

>  <csv_name>  (113) 
RdRp_knitwork_green_site_rna_tunnel_pure_split4000_batch008.csv

>  <fragmenstein_runtime>  (113) 
3.159092

>  <tags>  (113) 
['Fragmenstein placed']

>  <original ID>  (113) 
JDBGZCQVYCOVGK-QMMMGPOBSA-N

>  <fragmenstein_error>  (113) 
None

>  <original SMILES>  (113) 
Cc1cc(NC(=O)NC[C@H](C)O)cc(C#N)n1

>  <inchikey>  (113) 
JDBGZCQVYCOVGK-QMMMGPOBSA-N

>  <SLURM_JOB_NAME>  (113) 
BulkDock.place:Flavi_NS5_RdRp:RdRp_knitwork_green_site_rna_tunnel_pure_split4000_batch008

>  <scratch_subdir>  (113) 
/opt/xchem-fragalysis-2/maxwin/BulkDock/SCRATCH/217079/C49902-P151

>  <alias>  (113) 
None

>  <SLURM_JOB_ID>  (113) 
217079

>  <exports>  (113) 
['/opt/xchem-fragalysis-2/maxwin/BulkDock/OUTPUTS/RdRp_knitwork_green_site_rna_tunnel_pure_split4000_batch008_217079.sdf']

$$$$
95706
     RDKit          3D

 19 19  0  0  0  0  0  0  0  0999 V2000
  -25.1591  -30.4451  -17.8803 C   0  0  0  0  0  0  0  0  0  0  0  0
  -26.4345  -30.1823  -18.6140 C   0  0  0  0  0  0  0  0  0  0  0  0
  -27.4865  -29.9120  -17.8202 N   0  0  0  0  0  0  0  0  0  0  0  0
  -28.7002  -29.7343  -18.3896 C   0  0  0  0  0  0  0  0  0  0  0  0
  -29.8568  -29.5673  -17.4439 C   0  0  0  0  0  0  0  0  0  0  0  0
  -29.6520  -28.5921  -16.5160 F   0  0  0  0  0  0  0  0  0  0  0  0
  -30.1622  -30.6896  -16.7393 F   0  0  0  0  0  0  0  0  0  0  0  0
  -30.9891  -29.2383  -18.0989 F   0  0  0  0  0  0  0  0  0  0  0  0
  -28.8760  -29.7267  -19.7714 C   0  0  0  0  0  0  0  0  0  0  0  0
  -27.7729  -29.9643  -20.5863 C   0  0  0  0  0  0  0  0  0  0  0  0
  -26.5412  -30.2476  -20.0046 C   0  0  0  0  0  0  0  0  0  0  0  0
  -25.4834  -30.7335  -20.7631 N   0  0  0  0  0  0  0  0  0  0  0  0
  -25.3035  -30.8130  -22.3057 C   0  0  0  0  0  0  0  0  0  0  0  0
  -25.9676  -30.4211  -23.1465 O   0  0  0  0  0  0  0  0  0  0  0  0
  -24.0156  -31.6664  -22.3644 N   0  0  0  0  0  0  0  0  0  0  0  0
  -23.3579  -32.2764  -23.4787 C   0  0  0  0  0  0  0  0  0  0  0  0
  -21.8406  -32.1690  -23.3362 C   0  0  2  0  0  0  0  0  0  0  0  0
  -21.1652  -33.0785  -24.3449 C   0  0  0  0  0  0  0  0  0  0  0  0
  -21.4441  -32.5622  -22.0131 O   0  0  0  0  0  0  0  0  0  0  0  0
  1  2  1  0
  2  3  2  0
  3  4  1  0
  4  5  1  0
  5  6  1  0
  5  7  1  0
  5  8  1  0
  4  9  2  0
  9 10  1  0
 10 11  2  0
 11 12  1  0
 12 13  1  0
 13 14  2  0
 13 15  1  0
 15 16  1  0
 16 17  1  0
 17 18  1  6
 17 19  1  0
 11  2  1  0
M  END
>  <HIPPO Pose ID>  (114) 
95706

>  <fragmenstein_outcome>  (114) 
acceptable

>  <energy_score>  (114) 
-30.795982

>  <distance_score>  (114) 
0.859357

>  <fragmenstein_mode>  (114) 
expansion

>  <HIPPO Compound ID>  (114) 
49943

>  <name>  (114) 
OQYDBCOBZAVKMW-LURJTMIESA-N

>  <ref_pdb>  (114) 
z0637a

>  <ref_mols>  (114) 
z0211a,z0637a

>  <csv_name>  (114) 
RdRp_knitwork_green_site_rna_tunnel_pure_split4000_batch008.csv

>  <fragmenstein_runtime>  (114) 
4.273605

>  <tags>  (114) 
['Fragmenstein placed']

>  <original ID>  (114) 
OQYDBCOBZAVKMW-LURJTMIESA-N

>  <fragmenstein_error>  (114) 
None

>  <original SMILES>  (114) 
Cc1nc(C(F)(F)F)ccc1NC(=O)NC[C@H](C)O

>  <inchikey>  (114) 
OQYDBCOBZAVKMW-LURJTMIESA-N

>  <SLURM_JOB_NAME>  (114) 
BulkDock.place:Flavi_NS5_RdRp:RdRp_knitwork_green_site_rna_tunnel_pure_split4000_batch008

>  <scratch_subdir>  (114) 
/opt/xchem-fragalysis-2/maxwin/BulkDock/SCRATCH/217079/C49943-P151

>  <alias>  (114) 
None

>  <SLURM_JOB_ID>  (114) 
217079

>  <exports>  (114) 
['/opt/xchem-fragalysis-2/maxwin/BulkDock/OUTPUTS/RdRp_knitwork_green_site_rna_tunnel_pure_split4000_batch008_217079.sdf']

$$$$
95730
     RDKit          3D

 16 16  0  0  0  0  0  0  0  0999 V2000
  -25.6711  -30.0194  -17.5837 C   0  0  0  0  0  0  0  0  0  0  0  0
  -26.9616  -30.0255  -18.3431 C   0  0  0  0  0  0  0  0  0  0  0  0
  -28.0794  -29.7941  -17.6063 N   0  0  0  0  0  0  0  0  0  0  0  0
  -29.2628  -29.8436  -18.2498 C   0  0  0  0  0  0  0  0  0  0  0  0
  -30.3672  -29.7277  -17.4995 F   0  0  0  0  0  0  0  0  0  0  0  0
  -29.3985  -30.0273  -19.6106 C   0  0  0  0  0  0  0  0  0  0  0  0
  -28.2436  -30.2225  -20.3568 C   0  0  0  0  0  0  0  0  0  0  0  0
  -27.0036  -30.2778  -19.7160 C   0  0  0  0  0  0  0  0  0  0  0  0
  -25.8711  -30.6431  -20.4437 N   0  0  0  0  0  0  0  0  0  0  0  0
  -25.6838  -30.8607  -21.9741 C   0  0  0  0  0  0  0  0  0  0  0  0
  -26.4107  -30.6954  -22.8340 O   0  0  0  0  0  0  0  0  0  0  0  0
  -24.2547  -31.4606  -21.9728 N   0  0  0  0  0  0  0  0  0  0  0  0
  -23.4938  -32.0589  -23.0388 C   0  0  0  0  0  0  0  0  0  0  0  0
  -21.9909  -32.0808  -22.7631 C   0  0  2  0  0  0  0  0  0  0  0  0
  -21.2732  -32.9683  -23.7658 C   0  0  0  0  0  0  0  0  0  0  0  0
  -21.7643  -32.5972  -21.4483 O   0  0  0  0  0  0  0  0  0  0  0  0
  1  2  1  0
  2  3  2  0
  3  4  1  0
  4  5  1  0
  4  6  2  0
  6  7  1  0
  7  8  2  0
  8  9  1  0
  9 10  1  0
 10 11  2  0
 10 12  1  0
 12 13  1  0
 13 14  1  0
 14 15  1  6
 14 16  1  0
  8  2  1  0
M  END
>  <HIPPO Pose ID>  (115) 
95730

>  <fragmenstein_outcome>  (115) 
acceptable

>  <energy_score>  (115) 
-13.986172

>  <distance_score>  (115) 
0.619587

>  <fragmenstein_mode>  (115) 
expansion

>  <HIPPO Compound ID>  (115) 
50402

>  <name>  (115) 
JXFWDRZDZBVDAL-LURJTMIESA-N

>  <ref_pdb>  (115) 
z0211a

>  <ref_mols>  (115) 
z0211a,z0637a

>  <csv_name>  (115) 
RdRp_knitwork_green_site_rna_tunnel_pure_split4000_batch008.csv

>  <fragmenstein_runtime>  (115) 
2.730372

>  <tags>  (115) 
['Fragmenstein placed']

>  <original ID>  (115) 
JXFWDRZDZBVDAL-LURJTMIESA-N

>  <fragmenstein_error>  (115) 
None

>  <original SMILES>  (115) 
Cc1nc(F)ccc1NC(=O)NC[C@H](C)O

>  <inchikey>  (115) 
JXFWDRZDZBVDAL-LURJTMIESA-N

>  <SLURM_JOB_NAME>  (115) 
BulkDock.place:Flavi_NS5_RdRp:RdRp_knitwork_green_site_rna_tunnel_pure_split4000_batch008

>  <scratch_subdir>  (115) 
/opt/xchem-fragalysis-2/maxwin/BulkDock/SCRATCH/217079/C50402-P102

>  <alias>  (115) 
None

>  <SLURM_JOB_ID>  (115) 
217079

>  <exports>  (115) 
['/opt/xchem-fragalysis-2/maxwin/BulkDock/OUTPUTS/RdRp_knitwork_green_site_rna_tunnel_pure_split4000_batch008_217079.sdf']

$$$$
95738
     RDKit          3D

 18 20  0  0  0  0  0  0  0  0999 V2000
  -25.3809  -28.4764  -24.4895 C   0  0  0  0  0  0  0  0  0  0  0  0
  -25.0491  -27.3644  -23.5345 C   0  0  0  0  0  0  0  0  0  0  0  0
  -24.3887  -26.3860  -23.8805 O   0  0  0  0  0  0  0  0  0  0  0  0
  -25.5740  -27.4923  -22.1797 C   0  0  0  0  0  0  0  0  0  0  0  0
  -25.3831  -26.5506  -21.1906 C   0  0  0  0  0  0  0  0  0  0  0  0
  -26.1492  -27.0507  -19.7576 S   0  0  0  0  0  0  0  0  0  0  0  0
  -26.7360  -28.4734  -20.5445 C   0  0  0  0  0  0  0  0  0  0  0  0
  -27.7431  -29.3365  -19.9006 C   0  0  0  0  0  0  0  0  0  0  0  0
  -28.7567  -29.6302  -20.7632 N   0  0  0  0  0  0  0  0  0  0  0  0
  -29.8316  -30.2667  -20.2798 C   0  0  0  0  0  0  0  0  0  0  0  0
  -29.9556  -30.6265  -18.9555 C   0  0  0  0  0  0  0  0  0  0  0  0
  -28.9150  -30.3479  -18.0658 C   0  0  0  0  0  0  0  0  0  0  0  0
  -29.0392  -30.6940  -16.7099 C   0  0  0  0  0  0  0  0  0  0  0  0
  -28.0013  -30.4639  -15.8092 C   0  0  0  0  0  0  0  0  0  0  0  0
  -26.8156  -29.9023  -16.2564 C   0  0  0  0  0  0  0  0  0  0  0  0
  -26.6867  -29.5371  -17.5974 C   0  0  0  0  0  0  0  0  0  0  0  0
  -27.7417  -29.7198  -18.5337 C   0  0  0  0  0  0  0  0  0  0  0  0
  -26.3269  -28.5956  -21.7923 N   0  0  0  0  0  0  0  0  0  0  0  0
  1  2  1  0
  2  3  2  0
  2  4  1  0
  4  5  2  0
  5  6  1  0
  6  7  1  0
  7  8  1  0
  8  9  2  0
  9 10  1  0
 10 11  2  0
 11 12  1  0
 12 13  2  0
 13 14  1  0
 14 15  2  0
 15 16  1  0
 16 17  2  0
  7 18  2  0
 18  4  1  0
 17  8  1  0
 17 12  1  0
M  END
>  <HIPPO Pose ID>  (116) 
95738

>  <fragmenstein_outcome>  (116) 
acceptable

>  <energy_score>  (116) 
-104.972716

>  <distance_score>  (116) 
0.829095

>  <fragmenstein_mode>  (116) 
expansion

>  <HIPPO Compound ID>  (116) 
48477

>  <name>  (116) 
MKYSFVXFAWJDCJ-UHFFFAOYSA-N

>  <ref_pdb>  (116) 
z0496a

>  <ref_mols>  (116) 
z0111a,z0496a

>  <csv_name>  (116) 
RdRp_knitwork_green_site_rna_tunnel_pure_split4000_batch005.csv

>  <fragmenstein_runtime>  (116) 
1.934338

>  <tags>  (116) 
['Fragmenstein placed']

>  <original ID>  (116) 
MKYSFVXFAWJDCJ-UHFFFAOYSA-N

>  <fragmenstein_error>  (116) 
None

>  <original SMILES>  (116) 
CC(=O)c1csc(-c2nccc3ccccc23)n1

>  <inchikey>  (116) 
MKYSFVXFAWJDCJ-UHFFFAOYSA-N

>  <SLURM_JOB_NAME>  (116) 
BulkDock.place:Flavi_NS5_RdRp:RdRp_knitwork_green_site_rna_tunnel_pure_split4000_batch005

>  <scratch_subdir>  (116) 
/opt/xchem-fragalysis-2/maxwin/BulkDock/SCRATCH/217076/C48477-P136

>  <alias>  (116) 
None

>  <SLURM_JOB_ID>  (116) 
217076

>  <exports>  (116) 
['/opt/xchem-fragalysis-2/maxwin/BulkDock/OUTPUTS/RdRp_knitwork_green_site_rna_tunnel_pure_split4000_batch005_217076.sdf']

$$$$
95739
     RDKit          3D

 16 16  0  0  0  0  0  0  0  0999 V2000
  -25.7321  -30.3770  -17.7759 C   0  0  0  0  0  0  0  0  0  0  0  0
  -26.9460  -30.1109  -18.6133 C   0  0  0  0  0  0  0  0  0  0  0  0
  -28.0786  -29.8466  -17.9180 N   0  0  0  0  0  0  0  0  0  0  0  0
  -29.2010  -29.6377  -18.6281 C   0  0  0  0  0  0  0  0  0  0  0  0
  -30.3331  -29.4727  -17.9343 F   0  0  0  0  0  0  0  0  0  0  0  0
  -29.2444  -29.5936  -20.0080 C   0  0  0  0  0  0  0  0  0  0  0  0
  -28.0664  -29.8273  -20.7109 C   0  0  0  0  0  0  0  0  0  0  0  0
  -26.9071  -30.1557  -20.0139 C   0  0  0  0  0  0  0  0  0  0  0  0
  -25.8030  -30.6788  -20.6873 N   0  0  0  0  0  0  0  0  0  0  0  0
  -25.4614  -30.6921  -22.2113 C   0  0  0  0  0  0  0  0  0  0  0  0
  -26.0046  -30.2103  -23.0939 O   0  0  0  0  0  0  0  0  0  0  0  0
  -24.2281  -31.6353  -22.1857 N   0  0  0  0  0  0  0  0  0  0  0  0
  -23.4912  -32.2364  -23.2669 C   0  0  0  0  0  0  0  0  0  0  0  0
  -21.9805  -32.0094  -23.1740 C   0  0  2  0  0  0  0  0  0  0  0  0
  -21.2532  -33.0512  -24.0067 C   0  0  0  0  0  0  0  0  0  0  0  0
  -21.5384  -32.1350  -21.8179 O   0  0  0  0  0  0  0  0  0  0  0  0
  1  2  1  0
  2  3  2  0
  3  4  1  0
  4  5  1  0
  4  6  2  0
  6  7  1  0
  7  8  2  0
  8  9  1  0
  9 10  1  0
 10 11  2  0
 10 12  1  0
 12 13  1  0
 13 14  1  0
 14 15  1  6
 14 16  1  0
  8  2  1  0
M  END
>  <HIPPO Pose ID>  (117) 
95739

>  <fragmenstein_outcome>  (117) 
acceptable

>  <energy_score>  (117) 
-11.919518

>  <distance_score>  (117) 
0.593208

>  <fragmenstein_mode>  (117) 
expansion

>  <HIPPO Compound ID>  (117) 
50402

>  <name>  (117) 
JXFWDRZDZBVDAL-LURJTMIESA-N

>  <ref_pdb>  (117) 
z0637a

>  <ref_mols>  (117) 
z0211a,z0637a

>  <csv_name>  (117) 
RdRp_knitwork_green_site_rna_tunnel_pure_split4000_batch008.csv

>  <fragmenstein_runtime>  (117) 
5.365227

>  <tags>  (117) 
['Fragmenstein placed']

>  <original ID>  (117) 
JXFWDRZDZBVDAL-LURJTMIESA-N

>  <fragmenstein_error>  (117) 
None

>  <original SMILES>  (117) 
Cc1nc(F)ccc1NC(=O)NC[C@H](C)O

>  <inchikey>  (117) 
JXFWDRZDZBVDAL-LURJTMIESA-N

>  <SLURM_JOB_NAME>  (117) 
BulkDock.place:Flavi_NS5_RdRp:RdRp_knitwork_green_site_rna_tunnel_pure_split4000_batch008

>  <scratch_subdir>  (117) 
/opt/xchem-fragalysis-2/maxwin/BulkDock/SCRATCH/217079/C50402-P151

>  <alias>  (117) 
None

>  <SLURM_JOB_ID>  (117) 
217079

>  <exports>  (117) 
['/opt/xchem-fragalysis-2/maxwin/BulkDock/OUTPUTS/RdRp_knitwork_green_site_rna_tunnel_pure_split4000_batch008_217079.sdf']

$$$$
95763
     RDKit          3D

 16 18  0  0  0  0  0  0  0  0999 V2000
  -25.2683  -28.7749  -24.4348 N   0  0  0  0  0  0  0  0  0  0  0  0
  -25.6846  -28.5134  -23.1820 C   0  0  0  0  0  0  0  0  0  0  0  0
  -26.4516  -29.3269  -22.4991 N   0  0  0  0  0  0  0  0  0  0  0  0
  -26.7906  -28.7724  -21.2653 C   0  0  0  0  0  0  0  0  0  0  0  0
  -27.8054  -29.3910  -20.4036 C   0  0  0  0  0  0  0  0  0  0  0  0
  -28.9089  -29.7582  -21.1079 N   0  0  0  0  0  0  0  0  0  0  0  0
  -29.9480  -30.2720  -20.4345 C   0  0  0  0  0  0  0  0  0  0  0  0
  -29.9472  -30.4557  -19.0688 C   0  0  0  0  0  0  0  0  0  0  0  0
  -28.8190  -30.0953  -18.3323 C   0  0  0  0  0  0  0  0  0  0  0  0
  -28.8106  -30.2827  -16.9389 C   0  0  0  0  0  0  0  0  0  0  0  0
  -27.6909  -29.9584  -16.1786 C   0  0  0  0  0  0  0  0  0  0  0  0
  -26.5695  -29.4327  -16.8032 C   0  0  0  0  0  0  0  0  0  0  0  0
  -26.5793  -29.2104  -18.1841 C   0  0  0  0  0  0  0  0  0  0  0  0
  -27.6962  -29.5445  -18.9934 C   0  0  0  0  0  0  0  0  0  0  0  0
  -26.2277  -27.5293  -21.0341 C   0  0  0  0  0  0  0  0  0  0  0  0
  -25.2448  -27.0650  -22.3696 S   0  0  0  0  0  0  0  0  0  0  0  0
  1  2  1  0
  2  3  2  0
  3  4  1  0
  4  5  1  0
  5  6  2  0
  6  7  1  0
  7  8  2  0
  8  9  1  0
  9 10  2  0
 10 11  1  0
 11 12  2  0
 12 13  1  0
 13 14  2  0
  4 15  2  0
 15 16  1  0
 16  2  1  0
 14  5  1  0
 14  9  1  0
M  END
>  <HIPPO Pose ID>  (118) 
95763

>  <fragmenstein_outcome>  (118) 
acceptable

>  <energy_score>  (118) 
-123.931454

>  <distance_score>  (118) 
0.685583

>  <fragmenstein_mode>  (118) 
expansion

>  <HIPPO Compound ID>  (118) 
48706

>  <name>  (118) 
YLNUDNTUPQXQBM-UHFFFAOYSA-N

>  <ref_pdb>  (118) 
z0496a

>  <ref_mols>  (118) 
z0111a,z0496a

>  <csv_name>  (118) 
RdRp_knitwork_green_site_rna_tunnel_pure_split4000_batch005.csv

>  <fragmenstein_runtime>  (118) 
1.774051

>  <tags>  (118) 
['Fragmenstein placed']

>  <original ID>  (118) 
YLNUDNTUPQXQBM-UHFFFAOYSA-N

>  <fragmenstein_error>  (118) 
None

>  <original SMILES>  (118) 
Nc1nc(-c2nccc3ccccc23)cs1

>  <inchikey>  (118) 
YLNUDNTUPQXQBM-UHFFFAOYSA-N

>  <SLURM_JOB_NAME>  (118) 
BulkDock.place:Flavi_NS5_RdRp:RdRp_knitwork_green_site_rna_tunnel_pure_split4000_batch005

>  <scratch_subdir>  (118) 
/opt/xchem-fragalysis-2/maxwin/BulkDock/SCRATCH/217076/C48706-P136

>  <alias>  (118) 
None

>  <SLURM_JOB_ID>  (118) 
217076

>  <exports>  (118) 
['/opt/xchem-fragalysis-2/maxwin/BulkDock/OUTPUTS/RdRp_knitwork_green_site_rna_tunnel_pure_split4000_batch005_217076.sdf']

$$$$
95774
     RDKit          3D

 15 15  0  0  0  0  0  0  0  0999 V2000
  -21.2566  -33.1200  -23.6898 C   0  0  0  0  0  0  0  0  0  0  0  0
  -21.9768  -32.1925  -22.7319 C   0  0  2  0  0  0  0  0  0  0  0  0
  -21.0653  -31.1488  -22.4001 O   0  0  0  0  0  0  0  0  0  0  0  0
  -22.3869  -32.9010  -21.4365 C   0  0  0  0  0  0  0  0  0  0  0  0
  -23.4654  -32.1995  -20.7803 N   0  0  0  0  0  0  0  0  0  0  0  0
  -24.9592  -32.0562  -21.1769 C   0  0  0  0  0  0  0  0  0  0  0  0
  -25.5433  -32.5352  -22.0301 O   0  0  0  0  0  0  0  0  0  0  0  0
  -25.4483  -31.1480  -20.0079 N   0  0  0  0  0  0  0  0  0  0  0  0
  -26.7058  -30.6099  -19.7511 C   0  0  0  0  0  0  0  0  0  0  0  0
  -27.7236  -30.6750  -20.7027 C   0  0  0  0  0  0  0  0  0  0  0  0
  -29.0152  -30.3450  -20.4634 N   0  0  0  0  0  0  0  0  0  0  0  0
  -29.3037  -29.9583  -19.2039 C   0  0  0  0  0  0  0  0  0  0  0  0
  -28.3481  -29.8153  -18.2076 C   0  0  0  0  0  0  0  0  0  0  0  0
  -28.8275  -29.4228  -16.6101 Cl  0  0  0  0  0  0  0  0  0  0  0  0
  -27.0149  -30.1055  -18.4945 C   0  0  0  0  0  0  0  0  0  0  0  0
  2  1  1  6
  2  3  1  0
  2  4  1  0
  4  5  1  0
  5  6  1  0
  6  7  2  0
  6  8  1  0
  8  9  1  0
  9 10  2  0
 10 11  1  0
 11 12  2  0
 12 13  1  0
 13 14  1  0
 13 15  2  0
 15  9  1  0
M  END
>  <HIPPO Pose ID>  (119) 
95774

>  <fragmenstein_outcome>  (119) 
acceptable

>  <energy_score>  (119) 
-19.001366

>  <distance_score>  (119) 
0.931752

>  <fragmenstein_mode>  (119) 
expansion

>  <HIPPO Compound ID>  (119) 
50592

>  <name>  (119) 
HNIDIRNCXQONKP-LURJTMIESA-N

>  <ref_pdb>  (119) 
z0211a

>  <ref_mols>  (119) 
z0211a,z0637a

>  <csv_name>  (119) 
RdRp_knitwork_green_site_rna_tunnel_pure_split4000_batch008.csv

>  <fragmenstein_runtime>  (119) 
3.627149

>  <tags>  (119) 
['Fragmenstein placed']

>  <original ID>  (119) 
HNIDIRNCXQONKP-LURJTMIESA-N

>  <fragmenstein_error>  (119) 
None

>  <original SMILES>  (119) 
C[C@H](O)CNC(=O)Nc1cncc(Cl)c1

>  <inchikey>  (119) 
HNIDIRNCXQONKP-LURJTMIESA-N

>  <SLURM_JOB_NAME>  (119) 
BulkDock.place:Flavi_NS5_RdRp:RdRp_knitwork_green_site_rna_tunnel_pure_split4000_batch008

>  <scratch_subdir>  (119) 
/opt/xchem-fragalysis-2/maxwin/BulkDock/SCRATCH/217079/C50592-P102

>  <alias>  (119) 
None

>  <SLURM_JOB_ID>  (119) 
217079

>  <exports>  (119) 
['/opt/xchem-fragalysis-2/maxwin/BulkDock/OUTPUTS/RdRp_knitwork_green_site_rna_tunnel_pure_split4000_batch008_217079.sdf']

$$$$
95778
     RDKit          3D

 15 15  0  0  0  0  0  0  0  0999 V2000
  -21.1234  -33.0457  -23.8049 C   0  0  0  0  0  0  0  0  0  0  0  0
  -21.8974  -32.0101  -23.0069 C   0  0  2  0  0  0  0  0  0  0  0  0
  -21.5281  -32.1475  -21.6317 O   0  0  0  0  0  0  0  0  0  0  0  0
  -23.3952  -32.2516  -23.1808 C   0  0  0  0  0  0  0  0  0  0  0  0
  -24.2057  -31.6245  -22.1713 N   0  0  0  0  0  0  0  0  0  0  0  0
  -25.4483  -30.7048  -22.3079 C   0  0  0  0  0  0  0  0  0  0  0  0
  -25.9428  -30.2653  -23.2395 O   0  0  0  0  0  0  0  0  0  0  0  0
  -25.8852  -30.6409  -20.8069 N   0  0  0  0  0  0  0  0  0  0  0  0
  -27.0336  -30.1138  -20.2254 C   0  0  0  0  0  0  0  0  0  0  0  0
  -28.0995  -29.6940  -21.0116 C   0  0  0  0  0  0  0  0  0  0  0  0
  -29.3312  -29.4234  -20.5287 N   0  0  0  0  0  0  0  0  0  0  0  0
  -29.4814  -29.5121  -19.1898 C   0  0  0  0  0  0  0  0  0  0  0  0
  -28.4470  -29.7931  -18.3148 C   0  0  0  0  0  0  0  0  0  0  0  0
  -28.7156  -29.7023  -16.6224 Cl  0  0  0  0  0  0  0  0  0  0  0  0
  -27.2039  -30.1357  -18.8419 C   0  0  0  0  0  0  0  0  0  0  0  0
  2  1  1  6
  2  3  1  0
  2  4  1  0
  4  5  1  0
  5  6  1  0
  6  7  2  0
  6  8  1  0
  8  9  1  0
  9 10  2  0
 10 11  1  0
 11 12  2  0
 12 13  1  0
 13 14  1  0
 13 15  2  0
 15  9  1  0
M  END
>  <HIPPO Pose ID>  (120) 
95778

>  <fragmenstein_outcome>  (120) 
acceptable

>  <energy_score>  (120) 
-17.810245

>  <distance_score>  (120) 
0.587122

>  <fragmenstein_mode>  (120) 
expansion

>  <HIPPO Compound ID>  (120) 
50592

>  <name>  (120) 
HNIDIRNCXQONKP-LURJTMIESA-N

>  <ref_pdb>  (120) 
z0637a

>  <ref_mols>  (120) 
z0211a,z0637a

>  <csv_name>  (120) 
RdRp_knitwork_green_site_rna_tunnel_pure_split4000_batch008.csv

>  <fragmenstein_runtime>  (120) 
2.079744

>  <tags>  (120) 
['Fragmenstein placed']

>  <original ID>  (120) 
HNIDIRNCXQONKP-LURJTMIESA-N

>  <fragmenstein_error>  (120) 
None

>  <original SMILES>  (120) 
C[C@H](O)CNC(=O)Nc1cncc(Cl)c1

>  <inchikey>  (120) 
HNIDIRNCXQONKP-LURJTMIESA-N

>  <SLURM_JOB_NAME>  (120) 
BulkDock.place:Flavi_NS5_RdRp:RdRp_knitwork_green_site_rna_tunnel_pure_split4000_batch008

>  <scratch_subdir>  (120) 
/opt/xchem-fragalysis-2/maxwin/BulkDock/SCRATCH/217079/C50592-P151

>  <alias>  (120) 
None

>  <SLURM_JOB_ID>  (120) 
217079

>  <exports>  (120) 
['/opt/xchem-fragalysis-2/maxwin/BulkDock/OUTPUTS/RdRp_knitwork_green_site_rna_tunnel_pure_split4000_batch008_217079.sdf']

$$$$
95957
     RDKit          3D

 16 18  0  0  0  0  0  0  0  0999 V2000
  -25.2410  -25.9983  -21.3349 N   0  0  0  0  0  0  0  0  0  0  0  0
  -25.7396  -27.2187  -21.5668 C   0  0  0  0  0  0  0  0  0  0  0  0
  -25.5694  -27.9725  -22.7019 C   0  0  0  0  0  0  0  0  0  0  0  0
  -26.4986  -29.4172  -22.5406 S   0  0  0  0  0  0  0  0  0  0  0  0
  -26.9922  -28.9130  -20.9676 C   0  0  0  0  0  0  0  0  0  0  0  0
  -27.9412  -29.6999  -20.1713 C   0  0  0  0  0  0  0  0  0  0  0  0
  -28.9973  -30.1630  -20.8926 N   0  0  0  0  0  0  0  0  0  0  0  0
  -29.9976  -30.7397  -20.2113 C   0  0  0  0  0  0  0  0  0  0  0  0
  -29.9885  -30.9105  -18.8415 C   0  0  0  0  0  0  0  0  0  0  0  0
  -28.9009  -30.4528  -18.0983 C   0  0  0  0  0  0  0  0  0  0  0  0
  -28.8801  -30.6100  -16.7014 C   0  0  0  0  0  0  0  0  0  0  0  0
  -27.7905  -30.1807  -15.9471 C   0  0  0  0  0  0  0  0  0  0  0  0
  -26.7118  -29.5806  -16.5800 C   0  0  0  0  0  0  0  0  0  0  0  0
  -26.7376  -29.3892  -17.9632 C   0  0  0  0  0  0  0  0  0  0  0  0
  -27.8268  -29.8281  -18.7606 C   0  0  0  0  0  0  0  0  0  0  0  0
  -26.5053  -27.7507  -20.5808 N   0  0  0  0  0  0  0  0  0  0  0  0
  1  2  1  0
  2  3  2  0
  3  4  1  0
  4  5  1  0
  5  6  1  0
  6  7  2  0
  7  8  1  0
  8  9  2  0
  9 10  1  0
 10 11  2  0
 11 12  1  0
 12 13  2  0
 13 14  1  0
 14 15  2  0
  5 16  2  0
 16  2  1  0
 15  6  1  0
 15 10  1  0
M  END
>  <HIPPO Pose ID>  (121) 
95957

>  <fragmenstein_outcome>  (121) 
acceptable

>  <energy_score>  (121) 
-85.742045

>  <distance_score>  (121) 
0.849909

>  <fragmenstein_mode>  (121) 
expansion

>  <HIPPO Compound ID>  (121) 
49455

>  <name>  (121) 
BXXSTDNXQYXVHZ-UHFFFAOYSA-N

>  <ref_pdb>  (121) 
z0496a

>  <ref_mols>  (121) 
z0111a,z0496a

>  <csv_name>  (121) 
RdRp_knitwork_green_site_rna_tunnel_pure_split4000_batch005.csv

>  <fragmenstein_runtime>  (121) 
1.912735

>  <tags>  (121) 
['Fragmenstein placed']

>  <original ID>  (121) 
BXXSTDNXQYXVHZ-UHFFFAOYSA-N

>  <fragmenstein_error>  (121) 
None

>  <original SMILES>  (121) 
Nc1csc(-c2nccc3ccccc23)n1

>  <inchikey>  (121) 
BXXSTDNXQYXVHZ-UHFFFAOYSA-N

>  <SLURM_JOB_NAME>  (121) 
BulkDock.place:Flavi_NS5_RdRp:RdRp_knitwork_green_site_rna_tunnel_pure_split4000_batch005

>  <scratch_subdir>  (121) 
/opt/xchem-fragalysis-2/maxwin/BulkDock/SCRATCH/217076/C49455-P136

>  <alias>  (121) 
None

>  <SLURM_JOB_ID>  (121) 
217076

>  <exports>  (121) 
['/opt/xchem-fragalysis-2/maxwin/BulkDock/OUTPUTS/RdRp_knitwork_green_site_rna_tunnel_pure_split4000_batch005_217076.sdf']

$$$$
95988
     RDKit          3D

 18 20  0  0  0  0  0  0  0  0999 V2000
  -25.5741  -28.5941  -25.0462 C   0  0  0  0  0  0  0  0  0  0  0  0
  -25.5588  -28.0426  -23.6879 C   0  0  0  0  0  0  0  0  0  0  0  0
  -26.1899  -28.6075  -22.6921 N   0  0  0  0  0  0  0  0  0  0  0  0
  -26.0713  -27.8169  -21.5658 C   0  0  0  0  0  0  0  0  0  0  0  0
  -26.6714  -28.3538  -20.3201 C   0  0  0  0  0  0  0  0  0  0  0  0
  -26.7349  -29.8246  -20.3436 N   0  0  0  0  0  0  0  0  0  0  0  0
  -27.8993  -30.1801  -19.6555 C   0  0  0  0  0  0  0  0  0  0  0  0
  -28.9700  -30.3567  -20.4546 N   0  0  0  0  0  0  0  0  0  0  0  0
  -30.1662  -30.3893  -19.8547 C   0  0  0  0  0  0  0  0  0  0  0  0
  -30.3207  -30.2754  -18.4866 C   0  0  0  0  0  0  0  0  0  0  0  0
  -29.2046  -30.1899  -17.6583 C   0  0  0  0  0  0  0  0  0  0  0  0
  -29.3353  -30.1274  -16.2633 C   0  0  0  0  0  0  0  0  0  0  0  0
  -28.2135  -30.0109  -15.4442 C   0  0  0  0  0  0  0  0  0  0  0  0
  -26.9476  -29.9476  -16.0083 C   0  0  0  0  0  0  0  0  0  0  0  0
  -26.8136  -30.0029  -17.3932 C   0  0  0  0  0  0  0  0  0  0  0  0
  -27.9390  -30.1357  -18.2426 C   0  0  0  0  0  0  0  0  0  0  0  0
  -25.3631  -26.6483  -21.7335 C   0  0  0  0  0  0  0  0  0  0  0  0
  -24.7922  -26.5593  -23.3420 S   0  0  0  0  0  0  0  0  0  0  0  0
  1  2  1  0
  2  3  2  0
  3  4  1  0
  4  5  1  0
  5  6  1  0
  6  7  1  0
  7  8  2  0
  8  9  1  0
  9 10  2  0
 10 11  1  0
 11 12  2  0
 12 13  1  0
 13 14  2  0
 14 15  1  0
 15 16  2  0
  4 17  2  0
 17 18  1  0
 18  2  1  0
 16  7  1  0
 16 11  1  0
M  END
>  <HIPPO Pose ID>  (122) 
95988

>  <fragmenstein_outcome>  (122) 
acceptable

>  <energy_score>  (122) 
-61.013959

>  <distance_score>  (122) 
0.926212

>  <fragmenstein_mode>  (122) 
expansion

>  <HIPPO Compound ID>  (122) 
49503

>  <name>  (122) 
QYRRPPSGQNMPRP-UHFFFAOYSA-N

>  <ref_pdb>  (122) 
z0496a

>  <ref_mols>  (122) 
z0111a,z0496a

>  <csv_name>  (122) 
RdRp_knitwork_green_site_rna_tunnel_pure_split4000_batch005.csv

>  <fragmenstein_runtime>  (122) 
2.335611

>  <tags>  (122) 
['Fragmenstein placed']

>  <original ID>  (122) 
QYRRPPSGQNMPRP-UHFFFAOYSA-N

>  <fragmenstein_error>  (122) 
None

>  <original SMILES>  (122) 
Cc1nc(CNc2nccc3ccccc23)cs1

>  <inchikey>  (122) 
QYRRPPSGQNMPRP-UHFFFAOYSA-N

>  <SLURM_JOB_NAME>  (122) 
BulkDock.place:Flavi_NS5_RdRp:RdRp_knitwork_green_site_rna_tunnel_pure_split4000_batch005

>  <scratch_subdir>  (122) 
/opt/xchem-fragalysis-2/maxwin/BulkDock/SCRATCH/217076/C49503-P136

>  <alias>  (122) 
None

>  <SLURM_JOB_ID>  (122) 
217076

>  <exports>  (122) 
['/opt/xchem-fragalysis-2/maxwin/BulkDock/OUTPUTS/RdRp_knitwork_green_site_rna_tunnel_pure_split4000_batch005_217076.sdf']

$$$$
96212
     RDKit          3D

 19 21  0  0  0  0  0  0  0  0999 V2000
  -26.4938  -32.3572  -13.9021 Br  0  0  0  0  0  0  0  0  0  0  0  0
  -26.1746  -31.1998  -15.3802 C   0  0  0  0  0  0  0  0  0  0  0  0
  -24.8575  -30.7964  -15.5740 C   0  0  0  0  0  0  0  0  0  0  0  0
  -24.5915  -29.9982  -16.6602 C   0  0  0  0  0  0  0  0  0  0  0  0
  -25.5298  -29.6035  -17.5394 N   0  0  0  0  0  0  0  0  0  0  0  0
  -26.8112  -29.9850  -17.3475 C   0  0  0  0  0  0  0  0  0  0  0  0
  -27.7858  -29.5765  -18.2810 C   0  0  0  0  0  0  0  0  0  0  0  0
  -27.3864  -28.8507  -19.4619 N   0  0  0  0  0  0  0  0  0  0  0  0
  -26.9854  -29.8303  -20.4751 C   0  0  0  0  0  0  0  0  0  0  0  0
  -26.5297  -29.1782  -21.7523 C   0  0  0  0  0  0  0  0  0  0  0  0
  -26.7340  -29.8790  -22.9438 C   0  0  0  0  0  0  0  0  0  0  0  0
  -26.2615  -29.3639  -24.1364 C   0  0  0  0  0  0  0  0  0  0  0  0
  -25.6045  -28.1964  -24.2091 N   0  0  0  0  0  0  0  0  0  0  0  0
  -25.3914  -27.5353  -23.0508 C   0  0  0  0  0  0  0  0  0  0  0  0
  -25.8227  -27.9782  -21.8113 C   0  0  0  0  0  0  0  0  0  0  0  0
  -29.1230  -29.9701  -18.1630 C   0  0  0  0  0  0  0  0  0  0  0  0
  -29.5170  -30.7367  -17.0790 C   0  0  0  0  0  0  0  0  0  0  0  0
  -28.5710  -31.1416  -16.1394 C   0  0  0  0  0  0  0  0  0  0  0  0
  -27.2033  -30.7897  -16.2616 C   0  0  0  0  0  0  0  0  0  0  0  0
  1  2  1  0
  2  3  2  0
  3  4  1  0
  4  5  2  0
  5  6  1  0
  6  7  2  0
  7  8  1  0
  8  9  1  0
  9 10  1  0
 10 11  2  0
 11 12  1  0
 12 13  2  0
 13 14  1  0
 14 15  2  0
  7 16  1  0
 16 17  2  0
 17 18  1  0
 18 19  2  0
 19  2  1  0
 19  6  1  0
 15 10  1  0
M  END
>  <HIPPO Pose ID>  (123) 
96212

>  <fragmenstein_outcome>  (123) 
acceptable

>  <energy_score>  (123) 
-29.687271

>  <distance_score>  (123) 
0.646897

>  <fragmenstein_mode>  (123) 
expansion

>  <HIPPO Compound ID>  (123) 
56537

>  <name>  (123) 
ZFGFQBONQPPJMM-UHFFFAOYSA-N

>  <ref_pdb>  (123) 
z0221a

>  <ref_mols>  (123) 
z0221a,z1040a

>  <csv_name>  (123) 
RdRp_knitwork_green_site_rna_tunnel_pure_split4000_batch003.csv

>  <fragmenstein_runtime>  (123) 
2.851921

>  <tags>  (123) 
['Fragmenstein placed']

>  <original ID>  (123) 
ZFGFQBONQPPJMM-UHFFFAOYSA-N

>  <fragmenstein_error>  (123) 
None

>  <original SMILES>  (123) 
Brc1ccnc2c(NCc3ccncc3)cccc12

>  <inchikey>  (123) 
ZFGFQBONQPPJMM-UHFFFAOYSA-N

>  <SLURM_JOB_NAME>  (123) 
BulkDock.place:Flavi_NS5_RdRp:RdRp_knitwork_green_site_rna_tunnel_pure_split4000_batch003

>  <scratch_subdir>  (123) 
/opt/xchem-fragalysis-2/maxwin/BulkDock/SCRATCH/217074/C56537-P105

>  <alias>  (123) 
None

>  <SLURM_JOB_ID>  (123) 
217074

>  <exports>  (123) 
['/opt/xchem-fragalysis-2/maxwin/BulkDock/OUTPUTS/RdRp_knitwork_green_site_rna_tunnel_pure_split4000_batch003_217074.sdf']

$$$$
96479
     RDKit          3D

 20 22  0  0  0  0  0  0  0  0999 V2000
  -29.5191  -31.3128  -14.4964 C   0  0  0  0  0  0  0  0  0  0  0  0
  -28.8968  -30.7754  -15.7592 C   0  0  0  0  0  0  0  0  0  0  0  0
  -29.7581  -30.2525  -16.7288 C   0  0  0  0  0  0  0  0  0  0  0  0
  -29.2664  -29.7836  -17.9322 C   0  0  0  0  0  0  0  0  0  0  0  0
  -27.8975  -29.8152  -18.1682 C   0  0  0  0  0  0  0  0  0  0  0  0
  -27.5050  -29.4477  -19.4544 N   0  0  0  0  0  0  0  0  0  0  0  0
  -26.4112  -30.0196  -20.3637 C   0  0  0  0  0  0  0  0  0  0  0  0
  -25.6103  -30.8388  -20.1577 O   0  0  0  0  0  0  0  0  0  0  0  0
  -26.3796  -29.3397  -21.6654 C   0  0  0  0  0  0  0  0  0  0  0  0
  -26.6151  -30.0844  -22.8168 C   0  0  0  0  0  0  0  0  0  0  0  0
  -26.2081  -29.5779  -24.0467 C   0  0  0  0  0  0  0  0  0  0  0  0
  -25.5723  -28.3476  -24.0592 C   0  0  0  0  0  0  0  0  0  0  0  0
  -25.4209  -27.5610  -22.9630 N   0  0  0  0  0  0  0  0  0  0  0  0
  -25.8032  -28.0855  -21.7769 C   0  0  0  0  0  0  0  0  0  0  0  0
  -26.9911  -30.2567  -17.1583 C   0  0  0  0  0  0  0  0  0  0  0  0
  -25.5798  -30.1876  -17.2448 C   0  0  0  0  0  0  0  0  0  0  0  0
  -24.7670  -30.6396  -16.2132 C   0  0  0  0  0  0  0  0  0  0  0  0
  -25.3818  -31.1375  -15.0901 C   0  0  0  0  0  0  0  0  0  0  0  0
  -26.7189  -31.1862  -14.9348 N   0  0  0  0  0  0  0  0  0  0  0  0
  -27.5117  -30.7513  -15.9386 C   0  0  0  0  0  0  0  0  0  0  0  0
  1  2  1  0
  2  3  2  0
  3  4  1  0
  4  5  2  0
  5  6  1  0
  6  7  1  0
  7  8  2  0
  7  9  1  0
  9 10  2  0
 10 11  1  0
 11 12  2  0
 12 13  1  0
 13 14  2  0
  5 15  1  0
 15 16  2  0
 16 17  1  0
 17 18  2  0
 18 19  1  0
 19 20  2  0
 20  2  1  0
 14  9  1  0
 20 15  1  0
M  END
>  <HIPPO Pose ID>  (124) 
96479

>  <fragmenstein_outcome>  (124) 
acceptable

>  <energy_score>  (124) 
-29.511063

>  <distance_score>  (124) 
0.809757

>  <fragmenstein_mode>  (124) 
expansion

>  <HIPPO Compound ID>  (124) 
30876

>  <name>  (124) 
CKIOSIPIGDGSDU-UHFFFAOYSA-N

>  <ref_pdb>  (124) 
z0221a

>  <ref_mols>  (124) 
z0221a,z1040a

>  <csv_name>  (124) 
RdRp_knitwork_green_site_rna_tunnel_pure_split4000_batch003.csv

>  <fragmenstein_runtime>  (124) 
2.795963

>  <tags>  (124) 
['Fragmenstein placed']

>  <original ID>  (124) 
CKIOSIPIGDGSDU-UHFFFAOYSA-N

>  <fragmenstein_error>  (124) 
None

>  <original SMILES>  (124) 
Cc1ccc(NC(=O)c2cccnc2)c2cccnc12

>  <inchikey>  (124) 
CKIOSIPIGDGSDU-UHFFFAOYSA-N

>  <SLURM_JOB_NAME>  (124) 
BulkDock.place:Flavi_NS5_RdRp:RdRp_knitwork_green_site_rna_tunnel_pure_split4000_batch003

>  <scratch_subdir>  (124) 
/opt/xchem-fragalysis-2/maxwin/BulkDock/SCRATCH/217074/C30876-P105

>  <alias>  (124) 
None

>  <SLURM_JOB_ID>  (124) 
217074

>  <exports>  (124) 
['/opt/xchem-fragalysis-2/maxwin/BulkDock/OUTPUTS/RdRp_knitwork_green_site_rna_tunnel_pure_split4000_batch003_217074.sdf']

$$$$
96633
     RDKit          3D

 25 27  0  0  0  0  0  0  0  0999 V2000
  -31.3852  -33.4581  -11.8113 C   0  0  0  0  0  0  0  0  0  0  0  0
  -30.4252  -32.7091  -12.5489 O   0  0  0  0  0  0  0  0  0  0  0  0
  -29.7547  -33.4413  -13.4816 C   0  0  0  0  0  0  0  0  0  0  0  0
  -29.9003  -34.6449  -13.6671 O   0  0  0  0  0  0  0  0  0  0  0  0
  -28.7445  -32.5842  -14.2149 C   0  0  0  0  0  0  0  0  0  0  0  0
  -29.3352  -31.3493  -14.6234 O   0  0  0  0  0  0  0  0  0  0  0  0
  -28.7496  -30.8014  -15.7467 C   0  0  0  0  0  0  0  0  0  0  0  0
  -29.6712  -30.2985  -16.6668 C   0  0  0  0  0  0  0  0  0  0  0  0
  -29.2379  -29.7895  -17.8783 C   0  0  0  0  0  0  0  0  0  0  0  0
  -27.8754  -29.7718  -18.1556 C   0  0  0  0  0  0  0  0  0  0  0  0
  -27.5126  -29.4149  -19.4525 N   0  0  0  0  0  0  0  0  0  0  0  0
  -26.4415  -29.9974  -20.3842 C   0  0  0  0  0  0  0  0  0  0  0  0
  -25.6382  -30.8181  -20.1912 O   0  0  0  0  0  0  0  0  0  0  0  0
  -26.4083  -29.3151  -21.6829 C   0  0  0  0  0  0  0  0  0  0  0  0
  -26.6327  -30.0629  -22.8345 C   0  0  0  0  0  0  0  0  0  0  0  0
  -26.2079  -29.5643  -24.0613 C   0  0  0  0  0  0  0  0  0  0  0  0
  -25.5627  -28.3391  -24.0702 C   0  0  0  0  0  0  0  0  0  0  0  0
  -25.4166  -27.5510  -22.9744 N   0  0  0  0  0  0  0  0  0  0  0  0
  -25.8178  -28.0674  -21.7910 C   0  0  0  0  0  0  0  0  0  0  0  0
  -26.9169  -30.1783  -17.1780 C   0  0  0  0  0  0  0  0  0  0  0  0
  -25.5163  -30.0320  -17.3167 C   0  0  0  0  0  0  0  0  0  0  0  0
  -24.6400  -30.4401  -16.3212 C   0  0  0  0  0  0  0  0  0  0  0  0
  -25.1781  -30.9781  -15.1808 C   0  0  0  0  0  0  0  0  0  0  0  0
  -26.5023  -31.1097  -14.9829 N   0  0  0  0  0  0  0  0  0  0  0  0
  -27.3657  -30.7107  -15.9508 C   0  0  0  0  0  0  0  0  0  0  0  0
  1  2  1  0
  2  3  1  0
  3  4  2  0
  3  5  1  0
  5  6  1  0
  6  7  1  0
  7  8  2  0
  8  9  1  0
  9 10  2  0
 10 11  1  0
 11 12  1  0
 12 13  2  0
 12 14  1  0
 14 15  2  0
 15 16  1  0
 16 17  2  0
 17 18  1  0
 18 19  2  0
 10 20  1  0
 20 21  2  0
 21 22  1  0
 22 23  2  0
 23 24  1  0
 24 25  2  0
 25  7  1  0
 19 14  1  0
 25 20  1  0
M  END
>  <HIPPO Pose ID>  (125) 
96633

>  <fragmenstein_outcome>  (125) 
acceptable

>  <energy_score>  (125) 
-22.888973

>  <distance_score>  (125) 
0.804863

>  <fragmenstein_mode>  (125) 
expansion

>  <HIPPO Compound ID>  (125) 
33413

>  <name>  (125) 
LOVBDSCQDDAQEY-UHFFFAOYSA-N

>  <ref_pdb>  (125) 
z0221a

>  <ref_mols>  (125) 
z0221a,z1040a

>  <csv_name>  (125) 
RdRp_knitwork_green_site_rna_tunnel_pure_split4000_batch003.csv

>  <fragmenstein_runtime>  (125) 
9.124221

>  <tags>  (125) 
['Fragmenstein placed']

>  <original ID>  (125) 
LOVBDSCQDDAQEY-UHFFFAOYSA-N

>  <fragmenstein_error>  (125) 
None

>  <original SMILES>  (125) 
COC(=O)COc1ccc(NC(=O)c2cccnc2)c2cccnc12

>  <inchikey>  (125) 
LOVBDSCQDDAQEY-UHFFFAOYSA-N

>  <SLURM_JOB_NAME>  (125) 
BulkDock.place:Flavi_NS5_RdRp:RdRp_knitwork_green_site_rna_tunnel_pure_split4000_batch003

>  <scratch_subdir>  (125) 
/opt/xchem-fragalysis-2/maxwin/BulkDock/SCRATCH/217074/C33413-P105

>  <alias>  (125) 
None

>  <SLURM_JOB_ID>  (125) 
217074

>  <exports>  (125) 
['/opt/xchem-fragalysis-2/maxwin/BulkDock/OUTPUTS/RdRp_knitwork_green_site_rna_tunnel_pure_split4000_batch003_217074.sdf']

$$$$
96667
     RDKit          3D

 20 22  0  0  0  0  0  0  0  0999 V2000
  -25.6068  -30.8322  -20.1563 O   0  0  0  0  0  0  0  0  0  0  0  0
  -26.4049  -30.0101  -20.3607 C   0  0  0  0  0  0  0  0  0  0  0  0
  -27.4998  -29.4394  -19.4516 N   0  0  0  0  0  0  0  0  0  0  0  0
  -27.8966  -29.8117  -18.1685 C   0  0  0  0  0  0  0  0  0  0  0  0
  -29.2684  -29.7905  -17.9425 C   0  0  0  0  0  0  0  0  0  0  0  0
  -29.7649  -30.2850  -16.7521 C   0  0  0  0  0  0  0  0  0  0  0  0
  -28.8969  -30.8064  -15.7958 C   0  0  0  0  0  0  0  0  0  0  0  0
  -29.7158  -31.5736  -14.2527 Br  0  0  0  0  0  0  0  0  0  0  0  0
  -27.5085  -30.7892  -15.9523 C   0  0  0  0  0  0  0  0  0  0  0  0
  -26.7059  -31.2473  -14.9605 N   0  0  0  0  0  0  0  0  0  0  0  0
  -25.3697  -31.1884  -15.1148 C   0  0  0  0  0  0  0  0  0  0  0  0
  -24.7612  -30.6580  -16.2258 C   0  0  0  0  0  0  0  0  0  0  0  0
  -25.5790  -30.1871  -17.2454 C   0  0  0  0  0  0  0  0  0  0  0  0
  -26.9901  -30.2663  -17.1606 C   0  0  0  0  0  0  0  0  0  0  0  0
  -26.3746  -29.3315  -21.6632 C   0  0  0  0  0  0  0  0  0  0  0  0
  -26.6172  -30.0769  -22.8132 C   0  0  0  0  0  0  0  0  0  0  0  0
  -26.2118  -29.5737  -24.0449 C   0  0  0  0  0  0  0  0  0  0  0  0
  -25.5717  -28.3458  -24.0610 C   0  0  0  0  0  0  0  0  0  0  0  0
  -25.4145  -27.5585  -22.9662 N   0  0  0  0  0  0  0  0  0  0  0  0
  -25.7942  -28.0797  -21.7781 C   0  0  0  0  0  0  0  0  0  0  0  0
  1  2  2  0
  2  3  1  0
  3  4  1  0
  4  5  2  0
  5  6  1  0
  6  7  2  0
  7  8  1  0
  7  9  1  0
  9 10  2  0
 10 11  1  0
 11 12  2  0
 12 13  1  0
 13 14  2  0
  2 15  1  0
 15 16  2  0
 16 17  1  0
 17 18  2  0
 18 19  1  0
 19 20  2  0
 14  4  1  0
 20 15  1  0
 14  9  1  0
M  END
>  <HIPPO Pose ID>  (126) 
96667

>  <fragmenstein_outcome>  (126) 
acceptable

>  <energy_score>  (126) 
-24.6355

>  <distance_score>  (126) 
0.807047

>  <fragmenstein_mode>  (126) 
expansion

>  <HIPPO Compound ID>  (126) 
33595

>  <name>  (126) 
LRZYCVXVAGXAFJ-UHFFFAOYSA-N

>  <ref_pdb>  (126) 
z0221a

>  <ref_mols>  (126) 
z0221a,z1040a

>  <csv_name>  (126) 
RdRp_knitwork_green_site_rna_tunnel_pure_split4000_batch003.csv

>  <fragmenstein_runtime>  (126) 
3.363968

>  <tags>  (126) 
['Fragmenstein placed']

>  <original ID>  (126) 
LRZYCVXVAGXAFJ-UHFFFAOYSA-N

>  <fragmenstein_error>  (126) 
None

>  <original SMILES>  (126) 
O=C(Nc1ccc(Br)c2ncccc12)c1cccnc1

>  <inchikey>  (126) 
LRZYCVXVAGXAFJ-UHFFFAOYSA-N

>  <SLURM_JOB_NAME>  (126) 
BulkDock.place:Flavi_NS5_RdRp:RdRp_knitwork_green_site_rna_tunnel_pure_split4000_batch003

>  <scratch_subdir>  (126) 
/opt/xchem-fragalysis-2/maxwin/BulkDock/SCRATCH/217074/C33595-P105

>  <alias>  (126) 
None

>  <SLURM_JOB_ID>  (126) 
217074

>  <exports>  (126) 
['/opt/xchem-fragalysis-2/maxwin/BulkDock/OUTPUTS/RdRp_knitwork_green_site_rna_tunnel_pure_split4000_batch003_217074.sdf']

$$$$
96691
     RDKit          3D

 25 28  0  0  0  0  0  0  0  0999 V2000
  -25.6331  -30.8450  -20.2208 O   0  0  0  0  0  0  0  0  0  0  0  0
  -26.4411  -30.0170  -20.3604 C   0  0  0  0  0  0  0  0  0  0  0  0
  -27.4965  -29.4794  -19.3814 N   0  0  0  0  0  0  0  0  0  0  0  0
  -27.8351  -29.8979  -18.0936 C   0  0  0  0  0  0  0  0  0  0  0  0
  -29.1792  -29.9169  -17.7721 C   0  0  0  0  0  0  0  0  0  0  0  0
  -29.5810  -30.5920  -16.6271 C   0  0  0  0  0  0  0  0  0  0  0  0
  -28.6743  -31.2920  -15.7958 C   0  0  0  0  0  0  0  0  0  0  0  0
  -29.2197  -32.0830  -14.7485 N   0  0  0  0  0  0  0  0  0  0  0  0
  -28.3262  -32.7428  -13.7734 C   0  0  0  0  0  0  0  0  0  0  0  0
  -29.1259  -33.5287  -12.7180 C   0  0  0  0  0  0  0  0  0  0  0  0
  -30.5271  -32.9651  -12.5198 C   0  0  0  0  0  0  0  0  0  0  0  0
  -31.3008  -32.9238  -13.8408 C   0  0  0  0  0  0  0  0  0  0  0  0
  -30.3857  -32.9177  -15.0666 C   0  0  0  0  0  0  0  0  0  0  0  0
  -27.2806  -31.1141  -16.0306 C   0  0  0  0  0  0  0  0  0  0  0  0
  -26.3453  -31.6165  -15.1789 N   0  0  0  0  0  0  0  0  0  0  0  0
  -25.0334  -31.4153  -15.3944 C   0  0  0  0  0  0  0  0  0  0  0  0
  -24.5540  -30.6930  -16.4510 C   0  0  0  0  0  0  0  0  0  0  0  0
  -25.4798  -30.1818  -17.3436 C   0  0  0  0  0  0  0  0  0  0  0  0
  -26.8682  -30.4018  -17.1840 C   0  0  0  0  0  0  0  0  0  0  0  0
  -26.4327  -29.3017  -21.6422 C   0  0  0  0  0  0  0  0  0  0  0  0
  -26.6589  -30.0323  -22.8062 C   0  0  0  0  0  0  0  0  0  0  0  0
  -26.2181  -29.5273  -24.0250 C   0  0  0  0  0  0  0  0  0  0  0  0
  -25.5566  -28.3110  -24.0155 C   0  0  0  0  0  0  0  0  0  0  0  0
  -25.4124  -27.5356  -22.9103 N   0  0  0  0  0  0  0  0  0  0  0  0
  -25.8273  -28.0602  -21.7343 C   0  0  0  0  0  0  0  0  0  0  0  0
  1  2  2  0
  2  3  1  0
  3  4  1  0
  4  5  2  0
  5  6  1  0
  6  7  2  0
  7  8  1  0
  8  9  1  0
  9 10  1  0
 10 11  1  0
 11 12  1  0
 12 13  1  0
  7 14  1  0
 14 15  2  0
 15 16  1  0
 16 17  2  0
 17 18  1  0
 18 19  2  0
  2 20  1  0
 20 21  2  0
 21 22  1  0
 22 23  2  0
 23 24  1  0
 24 25  2  0
 19  4  1  0
 25 20  1  0
 13  8  1  0
 19 14  1  0
M  END
>  <HIPPO Pose ID>  (127) 
96691

>  <fragmenstein_outcome>  (127) 
acceptable

>  <energy_score>  (127) 
-26.614841

>  <distance_score>  (127) 
0.891232

>  <fragmenstein_mode>  (127) 
expansion

>  <HIPPO Compound ID>  (127) 
33788

>  <name>  (127) 
HUWIWVHMYAKUTO-UHFFFAOYSA-N

>  <ref_pdb>  (127) 
z0221a

>  <ref_mols>  (127) 
z0221a,z1040a

>  <csv_name>  (127) 
RdRp_knitwork_green_site_rna_tunnel_pure_split4000_batch003.csv

>  <fragmenstein_runtime>  (127) 
6.314294

>  <tags>  (127) 
['Fragmenstein placed']

>  <original ID>  (127) 
HUWIWVHMYAKUTO-UHFFFAOYSA-N

>  <fragmenstein_error>  (127) 
None

>  <original SMILES>  (127) 
O=C(Nc1ccc(N2CCCCC2)c2ncccc12)c1cccnc1

>  <inchikey>  (127) 
HUWIWVHMYAKUTO-UHFFFAOYSA-N

>  <SLURM_JOB_NAME>  (127) 
BulkDock.place:Flavi_NS5_RdRp:RdRp_knitwork_green_site_rna_tunnel_pure_split4000_batch003

>  <scratch_subdir>  (127) 
/opt/xchem-fragalysis-2/maxwin/BulkDock/SCRATCH/217074/C33788-P105

>  <alias>  (127) 
None

>  <SLURM_JOB_ID>  (127) 
217074

>  <exports>  (127) 
['/opt/xchem-fragalysis-2/maxwin/BulkDock/OUTPUTS/RdRp_knitwork_green_site_rna_tunnel_pure_split4000_batch003_217074.sdf']

$$$$
97091
     RDKit          3D

 17 18  0  0  0  0  0  0  0  0999 V2000
  -25.9198  -31.0053  -20.5216 C   0  0  0  0  0  0  0  0  0  0  0  0
  -24.8876  -30.9274  -21.6331 C   0  0  0  0  0  0  0  0  0  0  0  0
  -23.7997  -31.8216  -21.3801 O   0  0  0  0  0  0  0  0  0  0  0  0
  -23.9751  -33.1324  -21.7265 C   0  0  0  0  0  0  0  0  0  0  0  0
  -25.0006  -33.5741  -22.2248 O   0  0  0  0  0  0  0  0  0  0  0  0
  -22.8008  -33.9191  -21.4135 C   0  0  0  0  0  0  0  0  0  0  0  0
  -22.7162  -35.3023  -21.3896 C   0  0  0  0  0  0  0  0  0  0  0  0
  -23.9308  -36.4628  -21.7819 Cl  0  0  0  0  0  0  0  0  0  0  0  0
  -21.4767  -35.6896  -20.9680 O   0  0  0  0  0  0  0  0  0  0  0  0
  -20.7422  -34.5670  -20.7540 C   0  0  0  0  0  0  0  0  0  0  0  0
  -19.4192  -34.5022  -20.3046 C   0  0  0  0  0  0  0  0  0  0  0  0
  -18.6749  -35.6188  -20.0080 O   0  0  0  0  0  0  0  0  0  0  0  0
  -18.7069  -35.8379  -18.5970 C   0  0  0  0  0  0  0  0  0  0  0  0
  -18.8186  -33.2416  -20.2330 C   0  0  0  0  0  0  0  0  0  0  0  0
  -19.5361  -32.0926  -20.5543 C   0  0  0  0  0  0  0  0  0  0  0  0
  -20.8734  -32.1761  -20.9592 C   0  0  0  0  0  0  0  0  0  0  0  0
  -21.4953  -33.4407  -21.0614 C   0  0  0  0  0  0  0  0  0  0  0  0
  1  2  1  0
  2  3  1  0
  3  4  1  0
  4  5  2  0
  4  6  1  0
  6  7  2  0
  7  8  1  0
  7  9  1  0
  9 10  1  0
 10 11  2  0
 11 12  1  0
 12 13  1  0
 11 14  1  0
 14 15  2  0
 15 16  1  0
 16 17  2  0
 17  6  1  0
 17 10  1  0
M  END
>  <HIPPO Pose ID>  (128) 
97091

>  <fragmenstein_outcome>  (128) 
acceptable

>  <energy_score>  (128) 
-37.38603

>  <distance_score>  (128) 
0.941495

>  <fragmenstein_mode>  (128) 
expansion

>  <HIPPO Compound ID>  (128) 
52166

>  <name>  (128) 
RGIXQTOAEGWZDT-UHFFFAOYSA-N

>  <ref_pdb>  (128) 
3vws-b

>  <ref_mols>  (128) 
z0628a,3vws-b

>  <csv_name>  (128) 
RdRp_knitwork_green_site_rna_tunnel_pure_split4000_batch002.csv

>  <fragmenstein_runtime>  (128) 
2.152306

>  <tags>  (128) 
['Fragmenstein placed']

>  <original ID>  (128) 
RGIXQTOAEGWZDT-UHFFFAOYSA-N

>  <fragmenstein_error>  (128) 
None

>  <original SMILES>  (128) 
CCOC(=O)c1c(Cl)oc2c(OC)cccc12

>  <inchikey>  (128) 
RGIXQTOAEGWZDT-UHFFFAOYSA-N

>  <SLURM_JOB_NAME>  (128) 
BulkDock.place:Flavi_NS5_RdRp:RdRp_knitwork_green_site_rna_tunnel_pure_split4000_batch002

>  <scratch_subdir>  (128) 
/opt/xchem-fragalysis-2/maxwin/BulkDock/SCRATCH/217073/C52166-P217

>  <alias>  (128) 
None

>  <SLURM_JOB_ID>  (128) 
217073

>  <exports>  (128) 
['/opt/xchem-fragalysis-2/maxwin/BulkDock/OUTPUTS/RdRp_knitwork_green_site_rna_tunnel_pure_split4000_batch002_217073.sdf']

$$$$
97129
     RDKit          3D

 17 18  0  0  0  0  0  0  0  0999 V2000
  -25.8918  -30.8814  -20.5675 C   0  0  0  0  0  0  0  0  0  0  0  0
  -24.8609  -30.8180  -21.6819 C   0  0  0  0  0  0  0  0  0  0  0  0
  -23.7882  -31.7321  -21.4304 O   0  0  0  0  0  0  0  0  0  0  0  0
  -23.9834  -33.0423  -21.7667 C   0  0  0  0  0  0  0  0  0  0  0  0
  -25.0200  -33.4686  -22.2587 O   0  0  0  0  0  0  0  0  0  0  0  0
  -22.8202  -33.8470  -21.4443 C   0  0  0  0  0  0  0  0  0  0  0  0
  -22.7390  -35.2298  -21.4061 C   0  0  0  0  0  0  0  0  0  0  0  0
  -24.1005  -36.4972  -21.8394 Br  0  0  0  0  0  0  0  0  0  0  0  0
  -21.5079  -35.6259  -20.9756 O   0  0  0  0  0  0  0  0  0  0  0  0
  -20.7660  -34.5079  -20.7673 C   0  0  0  0  0  0  0  0  0  0  0  0
  -19.4448  -34.4512  -20.3115 C   0  0  0  0  0  0  0  0  0  0  0  0
  -18.7102  -35.5708  -20.0021 O   0  0  0  0  0  0  0  0  0  0  0  0
  -18.7817  -35.7971  -18.5937 C   0  0  0  0  0  0  0  0  0  0  0  0
  -18.8340  -33.1958  -20.2452 C   0  0  0  0  0  0  0  0  0  0  0  0
  -19.5405  -32.0436  -20.5786 C   0  0  0  0  0  0  0  0  0  0  0  0
  -20.8762  -32.1187  -20.9913 C   0  0  0  0  0  0  0  0  0  0  0  0
  -21.5095  -33.3783  -21.0879 C   0  0  0  0  0  0  0  0  0  0  0  0
  1  2  1  0
  2  3  1  0
  3  4  1  0
  4  5  2  0
  4  6  1  0
  6  7  2  0
  7  8  1  0
  7  9  1  0
  9 10  1  0
 10 11  2  0
 11 12  1  0
 12 13  1  0
 11 14  1  0
 14 15  2  0
 15 16  1  0
 16 17  2  0
 17  6  1  0
 17 10  1  0
M  END
>  <HIPPO Pose ID>  (129) 
97129

>  <fragmenstein_outcome>  (129) 
acceptable

>  <energy_score>  (129) 
-36.734637

>  <distance_score>  (129) 
0.888171

>  <fragmenstein_mode>  (129) 
expansion

>  <HIPPO Compound ID>  (129) 
52258

>  <name>  (129) 
NOCNZASFLZOEDU-UHFFFAOYSA-N

>  <ref_pdb>  (129) 
3vws-b

>  <ref_mols>  (129) 
z0628a,3vws-b

>  <csv_name>  (129) 
RdRp_knitwork_green_site_rna_tunnel_pure_split4000_batch002.csv

>  <fragmenstein_runtime>  (129) 
2.331865

>  <tags>  (129) 
['Fragmenstein placed']

>  <original ID>  (129) 
NOCNZASFLZOEDU-UHFFFAOYSA-N

>  <fragmenstein_error>  (129) 
None

>  <original SMILES>  (129) 
CCOC(=O)c1c(Br)oc2c(OC)cccc12

>  <inchikey>  (129) 
NOCNZASFLZOEDU-UHFFFAOYSA-N

>  <SLURM_JOB_NAME>  (129) 
BulkDock.place:Flavi_NS5_RdRp:RdRp_knitwork_green_site_rna_tunnel_pure_split4000_batch002

>  <scratch_subdir>  (129) 
/opt/xchem-fragalysis-2/maxwin/BulkDock/SCRATCH/217073/C52258-P217

>  <alias>  (129) 
None

>  <SLURM_JOB_ID>  (129) 
217073

>  <exports>  (129) 
['/opt/xchem-fragalysis-2/maxwin/BulkDock/OUTPUTS/RdRp_knitwork_green_site_rna_tunnel_pure_split4000_batch002_217073.sdf']

$$$$
97214
     RDKit          3D

 24 27  0  0  0  0  0  0  0  0999 V2000
  -25.8750  -33.4686  -22.3985 O   0  0  0  0  0  0  0  0  0  0  0  0
  -24.6537  -32.6942  -22.4469 S   0  0  0  0  0  0  0  0  0  0  0  0
  -24.1522  -32.1050  -23.6649 O   0  0  0  0  0  0  0  0  0  0  0  0
  -24.8154  -31.4244  -21.3369 N   0  0  0  0  0  0  0  0  0  0  0  0
  -24.7965  -31.8294  -19.9321 C   0  0  0  0  0  0  0  0  0  0  0  0
  -25.4808  -30.8453  -19.0497 C   0  0  0  0  0  0  0  0  0  0  0  0
  -24.9900  -30.3535  -17.8523 C   0  0  0  0  0  0  0  0  0  0  0  0
  -25.9552  -29.6988  -17.1586 O   0  0  0  0  0  0  0  0  0  0  0  0
  -27.0889  -29.7625  -17.9042 C   0  0  0  0  0  0  0  0  0  0  0  0
  -28.3503  -29.3457  -17.4888 C   0  0  0  0  0  0  0  0  0  0  0  0
  -29.3993  -29.5710  -18.3826 C   0  0  0  0  0  0  0  0  0  0  0  0
  -29.1681  -30.0785  -19.6609 C   0  0  0  0  0  0  0  0  0  0  0  0
  -27.8847  -30.4837  -20.0507 C   0  0  0  0  0  0  0  0  0  0  0  0
  -26.8291  -30.3716  -19.1268 C   0  0  0  0  0  0  0  0  0  0  0  0
  -23.4005  -33.7739  -21.9175 C   0  0  0  0  0  0  0  0  0  0  0  0
  -23.5359  -35.1327  -21.7082 C   0  0  0  0  0  0  0  0  0  0  0  0
  -22.3598  -35.6009  -21.1880 N   0  0  0  0  0  0  0  0  0  0  0  0
  -21.4664  -34.5639  -21.0268 C   0  0  0  0  0  0  0  0  0  0  0  0
  -20.1728  -34.5642  -20.4816 C   0  0  0  0  0  0  0  0  0  0  0  0
  -19.4829  -33.3492  -20.4553 C   0  0  0  0  0  0  0  0  0  0  0  0
  -17.9011  -33.2880  -19.7745 Cl  0  0  0  0  0  0  0  0  0  0  0  0
  -20.0492  -32.1869  -20.9663 C   0  0  0  0  0  0  0  0  0  0  0  0
  -21.3353  -32.2100  -21.5180 C   0  0  0  0  0  0  0  0  0  0  0  0
  -22.0754  -33.4096  -21.5324 C   0  0  0  0  0  0  0  0  0  0  0  0
  1  2  2  0
  2  3  2  0
  2  4  1  0
  4  5  1  0
  5  6  1  0
  6  7  2  0
  7  8  1  0
  8  9  1  0
  9 10  2  0
 10 11  1  0
 11 12  2  0
 12 13  1  0
 13 14  2  0
  2 15  1  0
 15 16  2  0
 16 17  1  0
 17 18  1  0
 18 19  2  0
 19 20  1  0
 20 21  1  0
 20 22  2  0
 22 23  1  0
 23 24  2  0
 14  6  1  0
 24 15  1  0
 14  9  1  0
 24 18  1  0
M  END
>  <HIPPO Pose ID>  (130) 
97214

>  <fragmenstein_outcome>  (130) 
acceptable

>  <energy_score>  (130) 
-37.047189

>  <distance_score>  (130) 
0.71816

>  <fragmenstein_mode>  (130) 
expansion

>  <HIPPO Compound ID>  (130) 
35998

>  <name>  (130) 
FMEDJSBUXOCMLB-UHFFFAOYSA-N

>  <ref_pdb>  (130) 
z0041a

>  <ref_mols>  (130) 
z0041a,3vws-b

>  <csv_name>  (130) 
RdRp_knitwork_green_site_rna_tunnel_pure_split4000_batch005.csv

>  <fragmenstein_runtime>  (130) 
4.277477

>  <tags>  (130) 
['Fragmenstein placed']

>  <original ID>  (130) 
FMEDJSBUXOCMLB-UHFFFAOYSA-N

>  <fragmenstein_error>  (130) 
None

>  <original SMILES>  (130) 
O=S(=O)(NCc1coc2ccccc12)c1c[nH]c2cc(Cl)ccc12

>  <inchikey>  (130) 
FMEDJSBUXOCMLB-UHFFFAOYSA-N

>  <SLURM_JOB_NAME>  (130) 
BulkDock.place:Flavi_NS5_RdRp:RdRp_knitwork_green_site_rna_tunnel_pure_split4000_batch005

>  <scratch_subdir>  (130) 
/opt/xchem-fragalysis-2/maxwin/BulkDock/SCRATCH/217076/C35998-P82

>  <alias>  (130) 
None

>  <SLURM_JOB_ID>  (130) 
217076

>  <exports>  (130) 
['/opt/xchem-fragalysis-2/maxwin/BulkDock/OUTPUTS/RdRp_knitwork_green_site_rna_tunnel_pure_split4000_batch005_217076.sdf']

$$$$
97387
     RDKit          3D

 23 26  0  0  0  0  0  0  0  0999 V2000
  -24.1192  -33.1543  -18.9509 O   0  0  0  0  0  0  0  0  0  0  0  0
  -24.5387  -32.2173  -19.4980 C   0  0  0  0  0  0  0  0  0  0  0  0
  -24.5392  -31.8529  -20.9883 N   0  0  0  0  0  0  0  0  0  0  0  0
  -24.1057  -32.6108  -22.1409 C   0  0  0  0  0  0  0  0  0  0  0  0
  -23.0375  -33.5772  -21.7754 C   0  0  0  0  0  0  0  0  0  0  0  0
  -23.1352  -34.9573  -21.7412 C   0  0  0  0  0  0  0  0  0  0  0  0
  -21.9877  -35.5226  -21.2844 O   0  0  0  0  0  0  0  0  0  0  0  0
  -21.1289  -34.5037  -21.0104 C   0  0  0  0  0  0  0  0  0  0  0  0
  -19.8436  -34.6461  -20.4892 C   0  0  0  0  0  0  0  0  0  0  0  0
  -19.1149  -33.4698  -20.2859 C   0  0  0  0  0  0  0  0  0  0  0  0
  -19.6632  -32.2229  -20.5924 C   0  0  0  0  0  0  0  0  0  0  0  0
  -20.9574  -32.1142  -21.1192 C   0  0  0  0  0  0  0  0  0  0  0  0
  -21.7104  -33.2835  -21.3300 C   0  0  0  0  0  0  0  0  0  0  0  0
  -25.1650  -31.1602  -18.6895 C   0  0  0  0  0  0  0  0  0  0  0  0
  -24.6494  -30.7730  -17.4650 C   0  0  0  0  0  0  0  0  0  0  0  0
  -25.5621  -29.9856  -16.8285 N   0  0  0  0  0  0  0  0  0  0  0  0
  -26.6945  -29.8726  -17.5986 C   0  0  0  0  0  0  0  0  0  0  0  0
  -27.9430  -29.3388  -17.2643 C   0  0  0  0  0  0  0  0  0  0  0  0
  -28.9447  -29.3947  -18.2287 C   0  0  0  0  0  0  0  0  0  0  0  0
  -28.6768  -29.8797  -19.5016 C   0  0  0  0  0  0  0  0  0  0  0  0
  -30.0139  -29.7724  -20.8248 Br  0  0  0  0  0  0  0  0  0  0  0  0
  -27.4390  -30.4498  -19.8173 C   0  0  0  0  0  0  0  0  0  0  0  0
  -26.4293  -30.4879  -18.8291 C   0  0  0  0  0  0  0  0  0  0  0  0
  1  2  2  0
  2  3  1  0
  3  4  1  0
  4  5  1  0
  5  6  2  0
  6  7  1  0
  7  8  1  0
  8  9  2  0
  9 10  1  0
 10 11  2  0
 11 12  1  0
 12 13  2  0
  2 14  1  0
 14 15  2  0
 15 16  1  0
 16 17  1  0
 17 18  2  0
 18 19  1  0
 19 20  2  0
 20 21  1  0
 20 22  1  0
 22 23  2  0
 13  5  1  0
 23 14  1  0
 13  8  1  0
 23 17  1  0
M  END
>  <HIPPO Pose ID>  (131) 
97387

>  <fragmenstein_outcome>  (131) 
acceptable

>  <energy_score>  (131) 
-44.788646

>  <distance_score>  (131) 
0.878765

>  <fragmenstein_mode>  (131) 
expansion

>  <HIPPO Compound ID>  (131) 
36304

>  <name>  (131) 
VIZZVCMSLWTTNG-UHFFFAOYSA-N

>  <ref_pdb>  (131) 
z0041a

>  <ref_mols>  (131) 
z0041a,3vws-b

>  <csv_name>  (131) 
RdRp_knitwork_green_site_rna_tunnel_pure_split4000_batch005.csv

>  <fragmenstein_runtime>  (131) 
1.906229

>  <tags>  (131) 
['Fragmenstein placed']

>  <original ID>  (131) 
VIZZVCMSLWTTNG-UHFFFAOYSA-N

>  <fragmenstein_error>  (131) 
None

>  <original SMILES>  (131) 
O=C(NCc1coc2ccccc12)c1c[nH]c2ccc(Br)cc12

>  <inchikey>  (131) 
VIZZVCMSLWTTNG-UHFFFAOYSA-N

>  <SLURM_JOB_NAME>  (131) 
BulkDock.place:Flavi_NS5_RdRp:RdRp_knitwork_green_site_rna_tunnel_pure_split4000_batch005

>  <scratch_subdir>  (131) 
/opt/xchem-fragalysis-2/maxwin/BulkDock/SCRATCH/217076/C36304-P82

>  <alias>  (131) 
None

>  <SLURM_JOB_ID>  (131) 
217076

>  <exports>  (131) 
['/opt/xchem-fragalysis-2/maxwin/BulkDock/OUTPUTS/RdRp_knitwork_green_site_rna_tunnel_pure_split4000_batch005_217076.sdf']

$$$$
97521
     RDKit          3D

 23 26  0  0  0  0  0  0  0  0999 V2000
  -24.0836  -32.6343  -19.3728 O   0  0  0  0  0  0  0  0  0  0  0  0
  -24.7966  -31.8473  -19.8468 C   0  0  0  0  0  0  0  0  0  0  0  0
  -25.2660  -31.6762  -21.2991 N   0  0  0  0  0  0  0  0  0  0  0  0
  -25.0313  -32.4985  -22.4657 C   0  0  0  0  0  0  0  0  0  0  0  0
  -23.5813  -32.6787  -22.9062 C   0  0  0  0  0  0  0  0  0  0  0  0
  -22.7848  -33.6654  -22.1128 C   0  0  0  0  0  0  0  0  0  0  0  0
  -23.0756  -35.0005  -21.9008 C   0  0  0  0  0  0  0  0  0  0  0  0
  -22.0909  -35.5347  -21.1133 N   0  0  0  0  0  0  0  0  0  0  0  0
  -21.1256  -34.5919  -20.8497 C   0  0  0  0  0  0  0  0  0  0  0  0
  -19.9310  -34.6957  -20.1265 C   0  0  0  0  0  0  0  0  0  0  0  0
  -19.1432  -33.5464  -20.0069 C   0  0  0  0  0  0  0  0  0  0  0  0
  -19.5383  -32.3429  -20.5841 C   0  0  0  0  0  0  0  0  0  0  0  0
  -20.7267  -32.2619  -21.3160 C   0  0  0  0  0  0  0  0  0  0  0  0
  -21.5395  -33.4058  -21.4547 C   0  0  0  0  0  0  0  0  0  0  0  0
  -25.4705  -30.8870  -18.9661 C   0  0  0  0  0  0  0  0  0  0  0  0
  -24.9255  -30.4565  -17.7689 C   0  0  0  0  0  0  0  0  0  0  0  0
  -25.8282  -29.7569  -17.0393 O   0  0  0  0  0  0  0  0  0  0  0  0
  -26.9900  -29.7631  -17.7399 C   0  0  0  0  0  0  0  0  0  0  0  0
  -28.2136  -29.3098  -17.2526 C   0  0  0  0  0  0  0  0  0  0  0  0
  -29.3198  -29.4881  -18.0825 C   0  0  0  0  0  0  0  0  0  0  0  0
  -29.1811  -29.9975  -19.3711 C   0  0  0  0  0  0  0  0  0  0  0  0
  -27.9340  -30.4365  -19.8374 C   0  0  0  0  0  0  0  0  0  0  0  0
  -26.8107  -30.3628  -18.9836 C   0  0  0  0  0  0  0  0  0  0  0  0
  1  2  2  0
  2  3  1  0
  3  4  1  0
  4  5  1  0
  5  6  1  0
  6  7  2  0
  7  8  1  0
  8  9  1  0
  9 10  2  0
 10 11  1  0
 11 12  2  0
 12 13  1  0
 13 14  2  0
  2 15  1  0
 15 16  2  0
 16 17  1  0
 17 18  1  0
 18 19  2  0
 19 20  1  0
 20 21  2  0
 21 22  1  0
 22 23  2  0
 14  6  1  0
 23 15  1  0
 14  9  1  0
 23 18  1  0
M  END
>  <HIPPO Pose ID>  (132) 
97521

>  <fragmenstein_outcome>  (132) 
acceptable

>  <energy_score>  (132) 
-10.355701

>  <distance_score>  (132) 
0.744435

>  <fragmenstein_mode>  (132) 
expansion

>  <HIPPO Compound ID>  (132) 
36439

>  <name>  (132) 
HFHDXRSWGDLOJI-UHFFFAOYSA-N

>  <ref_pdb>  (132) 
z0041a

>  <ref_mols>  (132) 
z0041a,3vws-b

>  <csv_name>  (132) 
RdRp_knitwork_green_site_rna_tunnel_pure_split4000_batch005.csv

>  <fragmenstein_runtime>  (132) 
4.241143

>  <tags>  (132) 
['Fragmenstein placed']

>  <original ID>  (132) 
HFHDXRSWGDLOJI-UHFFFAOYSA-N

>  <fragmenstein_error>  (132) 
None

>  <original SMILES>  (132) 
O=C(NCCc1c[nH]c2ccccc12)c1coc2ccccc12

>  <inchikey>  (132) 
HFHDXRSWGDLOJI-UHFFFAOYSA-N

>  <SLURM_JOB_NAME>  (132) 
BulkDock.place:Flavi_NS5_RdRp:RdRp_knitwork_green_site_rna_tunnel_pure_split4000_batch005

>  <scratch_subdir>  (132) 
/opt/xchem-fragalysis-2/maxwin/BulkDock/SCRATCH/217076/C36439-P82

>  <alias>  (132) 
None

>  <SLURM_JOB_ID>  (132) 
217076

>  <exports>  (132) 
['/opt/xchem-fragalysis-2/maxwin/BulkDock/OUTPUTS/RdRp_knitwork_green_site_rna_tunnel_pure_split4000_batch005_217076.sdf']

$$$$
97601
     RDKit          3D

 24 27  0  0  0  0  0  0  0  0999 V2000
  -26.7565  -27.2753  -18.7631 O   0  0  0  0  0  0  0  0  0  0  0  0
  -26.6231  -28.4227  -19.5895 C   0  0  0  0  0  0  0  0  0  0  0  0
  -26.6343  -29.7705  -18.8003 C   0  0  1  0  0  0  0  0  0  0  0  0
  -27.7704  -29.9403  -17.7919 C   0  0  0  0  0  0  0  0  0  0  0  0
  -27.5332  -29.4815  -16.4791 C   0  0  0  0  0  0  0  0  0  0  0  0
  -28.4379  -29.7232  -15.4445 C   0  0  0  0  0  0  0  0  0  0  0  0
  -29.6054  -30.4269  -15.6959 C   0  0  0  0  0  0  0  0  0  0  0  0
  -29.8717  -30.8672  -16.9862 C   0  0  0  0  0  0  0  0  0  0  0  0
  -28.9787  -30.6178  -18.0356 C   0  0  0  0  0  0  0  0  0  0  0  0
  -29.3987  -31.1696  -19.2160 O   0  0  0  0  0  0  0  0  0  0  0  0
  -28.8988  -30.5461  -20.3896 C   0  0  0  0  0  0  0  0  0  0  0  0
  -27.4961  -31.0794  -20.7420 C   0  0  0  0  0  0  0  0  0  0  0  0
  -26.5393  -30.9469  -19.6600 N   0  0  0  0  0  0  0  0  0  0  0  0
  -25.3867  -31.8264  -19.5493 C   0  0  0  0  0  0  0  0  0  0  0  0
  -25.3892  -32.7505  -18.2820 C   0  0  0  0  0  0  0  0  0  0  0  0
  -24.0305  -32.9216  -17.5965 C   0  0  0  0  0  0  0  0  0  0  0  0
  -22.9177  -33.4083  -18.3036 C   0  0  0  0  0  0  0  0  0  0  0  0
  -21.6225  -33.3829  -17.7547 C   0  0  0  0  0  0  0  0  0  0  0  0
  -21.4922  -32.8378  -16.4784 C   0  0  0  0  0  0  0  0  0  0  0  0
  -20.3187  -32.5894  -15.8308 O   0  0  0  0  0  0  0  0  0  0  0  0
  -20.6362  -32.0499  -14.6245 C   0  0  0  0  0  0  0  0  0  0  0  0
  -22.0019  -31.9471  -14.4859 C   0  0  0  0  0  0  0  0  0  0  0  0
  -22.5676  -32.4312  -15.6985 C   0  0  0  0  0  0  0  0  0  0  0  0
  -23.8662  -32.5195  -16.2486 C   0  0  0  0  0  0  0  0  0  0  0  0
  1  2  1  0
  3  2  1  6
  3  4  1  0
  4  5  2  0
  5  6  1  0
  6  7  2  0
  7  8  1  0
  8  9  2  0
  9 10  1  0
 10 11  1  0
 11 12  1  0
 12 13  1  0
 13 14  1  0
 14 15  1  0
 15 16  1  0
 16 17  2  0
 17 18  1  0
 18 19  2  0
 19 20  1  0
 20 21  1  0
 21 22  2  0
 22 23  1  0
 23 24  2  0
 13  3  1  0
 24 16  1  0
  9  4  1  0
 23 19  1  0
M  END
>  <HIPPO Pose ID>  (133) 
97601

>  <fragmenstein_outcome>  (133) 
acceptable

>  <energy_score>  (133) 
-56.468054

>  <distance_score>  (133) 
0.998769

>  <fragmenstein_mode>  (133) 
expansion

>  <HIPPO Compound ID>  (133) 
53682

>  <name>  (133) 
FIAQTEJONVUICB-SFHVURJKSA-N

>  <ref_pdb>  (133) 
z0581a

>  <ref_mols>  (133) 
z0581a,3vws-a

>  <csv_name>  (133) 
RdRp_knitwork_green_site_rna_tunnel_pure_split4000_batch012.csv

>  <fragmenstein_runtime>  (133) 
2.600663

>  <tags>  (133) 
['Fragmenstein placed']

>  <original ID>  (133) 
FIAQTEJONVUICB-SFHVURJKSA-N

>  <fragmenstein_error>  (133) 
None

>  <original SMILES>  (133) 
OC[C@H]1c2ccccc2OCCN1CCc1ccc2occc2c1

>  <inchikey>  (133) 
FIAQTEJONVUICB-SFHVURJKSA-N

>  <SLURM_JOB_NAME>  (133) 
BulkDock.place:Flavi_NS5_RdRp:RdRp_knitwork_green_site_rna_tunnel_pure_split4000_batch012

>  <scratch_subdir>  (133) 
/opt/xchem-fragalysis-2/maxwin/BulkDock/SCRATCH/217083/C53682-P144

>  <alias>  (133) 
None

>  <SLURM_JOB_ID>  (133) 
217083

>  <exports>  (133) 
['/opt/xchem-fragalysis-2/maxwin/BulkDock/OUTPUTS/RdRp_knitwork_green_site_rna_tunnel_pure_split4000_batch012_217083.sdf']

$$$$
97680
     RDKit          3D

 22 23  0  0  0  0  0  0  0  0999 V2000
  -25.8253  -30.9010  -20.6619 C   0  0  0  0  0  0  0  0  0  0  0  0
  -24.8698  -30.8898  -21.8440 C   0  0  0  0  0  0  0  0  0  0  0  0
  -23.8384  -31.8655  -21.6768 O   0  0  0  0  0  0  0  0  0  0  0  0
  -24.1468  -33.1722  -21.9392 C   0  0  0  0  0  0  0  0  0  0  0  0
  -25.2328  -33.5366  -22.3655 O   0  0  0  0  0  0  0  0  0  0  0  0
  -23.0362  -34.0502  -21.6020 C   0  0  0  0  0  0  0  0  0  0  0  0
  -23.0280  -35.4445  -21.5286 C   0  0  0  0  0  0  0  0  0  0  0  0
  -24.0247  -36.5603  -21.8068 C   0  0  0  0  0  0  0  0  0  0  0  0
  -24.4342  -36.5530  -23.2894 C   0  0  0  0  0  0  0  0  0  0  0  0
  -23.4148  -37.9507  -21.5075 C   0  0  0  0  0  0  0  0  0  0  0  0
  -25.2615  -36.4118  -20.9025 C   0  0  0  0  0  0  0  0  0  0  0  0
  -21.8145  -35.8591  -21.0417 O   0  0  0  0  0  0  0  0  0  0  0  0
  -21.0442  -34.7700  -20.8200 C   0  0  0  0  0  0  0  0  0  0  0  0
  -19.7624  -34.7736  -20.2780 C   0  0  0  0  0  0  0  0  0  0  0  0
  -19.1396  -33.5237  -20.1359 C   0  0  0  0  0  0  0  0  0  0  0  0
  -19.7676  -32.3394  -20.5365 C   0  0  0  0  0  0  0  0  0  0  0  0
  -19.0648  -31.1893  -20.2912 O   0  0  0  0  0  0  0  0  0  0  0  0
  -19.7053  -29.9248  -20.5151 C   0  0  0  0  0  0  0  0  0  0  0  0
  -20.8662  -29.6505  -19.6499 C   0  0  0  0  0  0  0  0  0  0  0  0
  -21.8416  -29.3993  -19.0720 N   0  0  0  0  0  0  0  0  0  0  0  0
  -21.0403  -32.3919  -21.1107 C   0  0  0  0  0  0  0  0  0  0  0  0
  -21.7158  -33.6290  -21.2139 C   0  0  0  0  0  0  0  0  0  0  0  0
  1  2  1  0
  2  3  1  0
  3  4  1  0
  4  5  2  0
  4  6  1  0
  6  7  2  0
  7  8  1  0
  8  9  1  0
  8 10  1  0
  8 11  1  0
  7 12  1  0
 12 13  1  0
 13 14  2  0
 14 15  1  0
 15 16  2  0
 16 17  1  0
 17 18  1  0
 18 19  1  0
 19 20  3  0
 16 21  1  0
 21 22  2  0
 22  6  1  0
 22 13  1  0
M  END
>  <HIPPO Pose ID>  (134) 
97680

>  <fragmenstein_outcome>  (134) 
acceptable

>  <energy_score>  (134) 
-46.313418

>  <distance_score>  (134) 
0.684709

>  <fragmenstein_mode>  (134) 
expansion

>  <HIPPO Compound ID>  (134) 
54279

>  <name>  (134) 
UTHDMBMEFZHWNK-UHFFFAOYSA-N

>  <ref_pdb>  (134) 
3vws-b

>  <ref_mols>  (134) 
z0628a,3vws-b

>  <csv_name>  (134) 
RdRp_knitwork_green_site_rna_tunnel_pure_split4000_batch002.csv

>  <fragmenstein_runtime>  (134) 
6.318376

>  <tags>  (134) 
['Fragmenstein placed']

>  <original ID>  (134) 
UTHDMBMEFZHWNK-UHFFFAOYSA-N

>  <fragmenstein_error>  (134) 
None

>  <original SMILES>  (134) 
CCOC(=O)c1c(C(C)(C)C)oc2ccc(OCC#N)cc12

>  <inchikey>  (134) 
UTHDMBMEFZHWNK-UHFFFAOYSA-N

>  <SLURM_JOB_NAME>  (134) 
BulkDock.place:Flavi_NS5_RdRp:RdRp_knitwork_green_site_rna_tunnel_pure_split4000_batch002

>  <scratch_subdir>  (134) 
/opt/xchem-fragalysis-2/maxwin/BulkDock/SCRATCH/217073/C54279-P217

>  <alias>  (134) 
None

>  <SLURM_JOB_ID>  (134) 
217073

>  <exports>  (134) 
['/opt/xchem-fragalysis-2/maxwin/BulkDock/OUTPUTS/RdRp_knitwork_green_site_rna_tunnel_pure_split4000_batch002_217073.sdf']

$$$$
97710
     RDKit          3D

 19 20  0  0  0  0  0  0  0  0999 V2000
  -25.5452  -30.6178  -20.2697 C   0  0  0  0  0  0  0  0  0  0  0  0
  -25.4401  -31.7538  -21.2616 C   0  0  0  0  0  0  0  0  0  0  0  0
  -24.2176  -32.4575  -21.0799 O   0  0  0  0  0  0  0  0  0  0  0  0
  -24.2069  -33.7024  -21.6458 C   0  0  0  0  0  0  0  0  0  0  0  0
  -25.1487  -34.1920  -22.2578 O   0  0  0  0  0  0  0  0  0  0  0  0
  -22.9556  -34.3779  -21.4024 C   0  0  0  0  0  0  0  0  0  0  0  0
  -22.7723  -35.7490  -21.4154 C   0  0  0  0  0  0  0  0  0  0  0  0
  -23.6625  -36.8934  -21.7159 C   0  0  0  0  0  0  0  0  0  0  0  0
  -21.5061  -36.0561  -21.0153 O   0  0  0  0  0  0  0  0  0  0  0  0
  -20.8598  -34.8854  -20.7784 C   0  0  0  0  0  0  0  0  0  0  0  0
  -19.5541  -34.7567  -20.3173 C   0  0  0  0  0  0  0  0  0  0  0  0
  -19.0586  -33.4504  -20.2001 C   0  0  0  0  0  0  0  0  0  0  0  0
  -19.8360  -32.3331  -20.5293 C   0  0  0  0  0  0  0  0  0  0  0  0
  -19.2059  -31.1285  -20.3542 O   0  0  0  0  0  0  0  0  0  0  0  0
  -19.9294  -29.9273  -20.6417 C   0  0  0  0  0  0  0  0  0  0  0  0
  -21.0039  -29.6241  -19.6829 C   0  0  0  0  0  0  0  0  0  0  0  0
  -21.9168  -29.3571  -19.0173 N   0  0  0  0  0  0  0  0  0  0  0  0
  -21.1538  -32.5066  -20.9709 C   0  0  0  0  0  0  0  0  0  0  0  0
  -21.6843  -33.8120  -21.0748 C   0  0  0  0  0  0  0  0  0  0  0  0
  1  2  1  0
  2  3  1  0
  3  4  1  0
  4  5  2  0
  4  6  1  0
  6  7  2  0
  7  8  1  0
  7  9  1  0
  9 10  1  0
 10 11  2  0
 11 12  1  0
 12 13  2  0
 13 14  1  0
 14 15  1  0
 15 16  1  0
 16 17  3  0
 13 18  1  0
 18 19  2  0
 19  6  1  0
 19 10  1  0
M  END
>  <HIPPO Pose ID>  (135) 
97710

>  <fragmenstein_outcome>  (135) 
acceptable

>  <energy_score>  (135) 
-20.922

>  <distance_score>  (135) 
0.85043

>  <fragmenstein_mode>  (135) 
expansion

>  <HIPPO Compound ID>  (135) 
54327

>  <name>  (135) 
DXXUVLBRVGNWBD-UHFFFAOYSA-N

>  <ref_pdb>  (135) 
3vws-b

>  <ref_mols>  (135) 
z0628a,3vws-b

>  <csv_name>  (135) 
RdRp_knitwork_green_site_rna_tunnel_pure_split4000_batch002.csv

>  <fragmenstein_runtime>  (135) 
3.216982

>  <tags>  (135) 
['Fragmenstein placed']

>  <original ID>  (135) 
DXXUVLBRVGNWBD-UHFFFAOYSA-N

>  <fragmenstein_error>  (135) 
None

>  <original SMILES>  (135) 
CCOC(=O)c1c(C)oc2ccc(OCC#N)cc12

>  <inchikey>  (135) 
DXXUVLBRVGNWBD-UHFFFAOYSA-N

>  <SLURM_JOB_NAME>  (135) 
BulkDock.place:Flavi_NS5_RdRp:RdRp_knitwork_green_site_rna_tunnel_pure_split4000_batch002

>  <scratch_subdir>  (135) 
/opt/xchem-fragalysis-2/maxwin/BulkDock/SCRATCH/217073/C54327-P217

>  <alias>  (135) 
None

>  <SLURM_JOB_ID>  (135) 
217073

>  <exports>  (135) 
['/opt/xchem-fragalysis-2/maxwin/BulkDock/OUTPUTS/RdRp_knitwork_green_site_rna_tunnel_pure_split4000_batch002_217073.sdf']

$$$$
97763
     RDKit          3D

 24 27  0  0  0  0  0  0  0  0999 V2000
  -23.7051  -31.4970  -19.6266 O   0  0  0  0  0  0  0  0  0  0  0  0
  -24.8790  -31.2446  -19.9057 C   0  0  0  0  0  0  0  0  0  0  0  0
  -25.4346  -31.6334  -21.2703 C   0  0  0  0  0  0  0  0  0  0  0  0
  -24.4253  -32.3964  -21.9481 O   0  0  0  0  0  0  0  0  0  0  0  0
  -24.4910  -33.7314  -21.6791 C   0  0  0  0  0  0  0  0  0  0  0  0
  -25.5553  -34.3297  -21.5514 O   0  0  0  0  0  0  0  0  0  0  0  0
  -23.1985  -34.3461  -21.4567 C   0  0  0  0  0  0  0  0  0  0  0  0
  -23.0319  -35.6996  -21.2349 C   0  0  0  0  0  0  0  0  0  0  0  0
  -21.7533  -35.9877  -20.8882 O   0  0  0  0  0  0  0  0  0  0  0  0
  -21.0705  -34.8116  -20.8876 C   0  0  0  0  0  0  0  0  0  0  0  0
  -19.7303  -34.6636  -20.5292 C   0  0  0  0  0  0  0  0  0  0  0  0
  -19.2009  -33.3719  -20.5920 C   0  0  0  0  0  0  0  0  0  0  0  0
  -19.9866  -32.2964  -21.0066 C   0  0  0  0  0  0  0  0  0  0  0  0
  -21.3288  -32.4804  -21.3693 C   0  0  0  0  0  0  0  0  0  0  0  0
  -21.8965  -33.7687  -21.2935 C   0  0  0  0  0  0  0  0  0  0  0  0
  -25.7147  -30.5712  -18.9148 C   0  0  0  0  0  0  0  0  0  0  0  0
  -25.2199  -30.2164  -17.6692 C   0  0  0  0  0  0  0  0  0  0  0  0
  -26.2338  -29.6995  -16.9210 N   0  0  0  0  0  0  0  0  0  0  0  0
  -27.4017  -29.7222  -17.6440 C   0  0  0  0  0  0  0  0  0  0  0  0
  -28.7028  -29.4200  -17.2306 C   0  0  0  0  0  0  0  0  0  0  0  0
  -29.7306  -29.6274  -18.1484 C   0  0  0  0  0  0  0  0  0  0  0  0
  -29.4608  -29.9976  -19.4598 C   0  0  0  0  0  0  0  0  0  0  0  0
  -28.1506  -30.2693  -19.8655 C   0  0  0  0  0  0  0  0  0  0  0  0
  -27.0989  -30.1975  -18.9255 C   0  0  0  0  0  0  0  0  0  0  0  0
  1  2  2  0
  2  3  1  0
  3  4  1  0
  4  5  1  0
  5  6  2  0
  5  7  1  0
  7  8  2  0
  8  9  1  0
  9 10  1  0
 10 11  2  0
 11 12  1  0
 12 13  2  0
 13 14  1  0
 14 15  2  0
  2 16  1  0
 16 17  2  0
 17 18  1  0
 18 19  1  0
 19 20  2  0
 20 21  1  0
 21 22  2  0
 22 23  1  0
 23 24  2  0
 15  7  1  0
 24 16  1  0
 15 10  1  0
 24 19  1  0
M  END
>  <HIPPO Pose ID>  (136) 
97763

>  <fragmenstein_outcome>  (136) 
acceptable

>  <energy_score>  (136) 
-29.851543

>  <distance_score>  (136) 
0.698421

>  <fragmenstein_mode>  (136) 
expansion

>  <HIPPO Compound ID>  (136) 
37081

>  <name>  (136) 
CZASWVPLTOEVBR-UHFFFAOYSA-N

>  <ref_pdb>  (136) 
z0041a

>  <ref_mols>  (136) 
z0041a,3vws-b

>  <csv_name>  (136) 
RdRp_knitwork_green_site_rna_tunnel_pure_split4000_batch005.csv

>  <fragmenstein_runtime>  (136) 
4.258364

>  <tags>  (136) 
['Fragmenstein placed']

>  <original ID>  (136) 
CZASWVPLTOEVBR-UHFFFAOYSA-N

>  <fragmenstein_error>  (136) 
None

>  <original SMILES>  (136) 
O=C(COC(=O)c1coc2ccccc12)c1c[nH]c2ccccc12

>  <inchikey>  (136) 
CZASWVPLTOEVBR-UHFFFAOYSA-N

>  <SLURM_JOB_NAME>  (136) 
BulkDock.place:Flavi_NS5_RdRp:RdRp_knitwork_green_site_rna_tunnel_pure_split4000_batch005

>  <scratch_subdir>  (136) 
/opt/xchem-fragalysis-2/maxwin/BulkDock/SCRATCH/217076/C37081-P82

>  <alias>  (136) 
None

>  <SLURM_JOB_ID>  (136) 
217076

>  <exports>  (136) 
['/opt/xchem-fragalysis-2/maxwin/BulkDock/OUTPUTS/RdRp_knitwork_green_site_rna_tunnel_pure_split4000_batch005_217076.sdf']

$$$$
98056
     RDKit          3D

 29 33  0  0  0  0  0  0  0  0999 V2000
  -26.1626  -30.5230  -22.4100 O   0  0  0  0  0  0  0  0  0  0  0  0
  -26.0084  -31.5584  -21.7724 C   0  0  0  0  0  0  0  0  0  0  0  0
  -26.5509  -32.7188  -22.1690 O   0  0  0  0  0  0  0  0  0  0  0  0
  -26.5205  -33.9712  -21.4454 C   0  0  0  0  0  0  0  0  0  0  0  0
  -25.5952  -34.9648  -22.0308 C   0  0  0  0  0  0  0  0  0  0  0  0
  -24.5514  -34.6865  -22.9284 C   0  0  0  0  0  0  0  0  0  0  0  0
  -23.5387  -35.4107  -22.3307 C   0  0  0  0  0  0  0  0  0  0  0  0
  -22.2482  -34.8879  -22.0367 C   0  0  0  0  0  0  0  0  0  0  0  0
  -21.7912  -33.6278  -22.3872 C   0  0  0  0  0  0  0  0  0  0  0  0
  -20.7157  -33.3306  -21.5303 C   0  0  0  0  0  0  0  0  0  0  0  0
  -19.9425  -32.1899  -21.2784 C   0  0  0  0  0  0  0  0  0  0  0  0
  -18.9332  -32.2804  -20.3157 C   0  0  0  0  0  0  0  0  0  0  0  0
  -18.6901  -33.4782  -19.6355 C   0  0  0  0  0  0  0  0  0  0  0  0
  -19.4681  -34.6186  -19.8632 C   0  0  0  0  0  0  0  0  0  0  0  0
  -20.4828  -34.4884  -20.8026 C   0  0  0  0  0  0  0  0  0  0  0  0
  -21.3959  -35.4454  -21.1236 O   0  0  0  0  0  0  0  0  0  0  0  0
  -24.0993  -36.4694  -21.6731 O   0  0  0  0  0  0  0  0  0  0  0  0
  -25.4492  -36.1751  -21.4766 N   0  0  0  0  0  0  0  0  0  0  0  0
  -25.1723  -31.5166  -20.4952 C   0  0  0  0  0  0  0  0  0  0  0  0
  -24.0636  -32.0428  -20.5389 O   0  0  0  0  0  0  0  0  0  0  0  0
  -25.6702  -30.8353  -19.3022 C   0  0  0  0  0  0  0  0  0  0  0  0
  -24.9077  -30.6270  -18.1647 C   0  0  0  0  0  0  0  0  0  0  0  0
  -25.6867  -30.0291  -17.2141 N   0  0  0  0  0  0  0  0  0  0  0  0
  -26.9656  -29.8676  -17.6940 C   0  0  0  0  0  0  0  0  0  0  0  0
  -28.1153  -29.4156  -17.0351 C   0  0  0  0  0  0  0  0  0  0  0  0
  -29.3186  -29.4465  -17.7390 C   0  0  0  0  0  0  0  0  0  0  0  0
  -29.3590  -29.8229  -19.0763 C   0  0  0  0  0  0  0  0  0  0  0  0
  -28.1958  -30.2350  -19.7326 C   0  0  0  0  0  0  0  0  0  0  0  0
  -26.9779  -30.3140  -19.0196 C   0  0  0  0  0  0  0  0  0  0  0  0
  1  2  2  0
  2  3  1  0
  3  4  1  0
  4  5  1  0
  5  6  1  0
  6  7  2  0
  7  8  1  0
  8  9  2  0
  9 10  1  0
 10 11  2  0
 11 12  1  0
 12 13  2  0
 13 14  1  0
 14 15  2  0
 15 16  1  0
  7 17  1  0
 17 18  1  0
  2 19  1  0
 19 20  2  0
 19 21  1  0
 21 22  2  0
 22 23  1  0
 23 24  1  0
 24 25  2  0
 25 26  1  0
 26 27  2  0
 27 28  1  0
 28 29  2  0
 18  5  2  0
 29 21  1  0
 16  8  1  0
 29 24  1  0
 15 10  1  0
M  END
>  <HIPPO Pose ID>  (137) 
98056

>  <fragmenstein_outcome>  (137) 
acceptable

>  <energy_score>  (137) 
-225.627753

>  <distance_score>  (137) 
0.98393

>  <fragmenstein_mode>  (137) 
expansion

>  <HIPPO Compound ID>  (137) 
31116

>  <name>  (137) 
NHWWVGMPOUZEOS-UHFFFAOYSA-N

>  <ref_pdb>  (137) 
z0041a

>  <ref_mols>  (137) 
z0041a,3vws-b

>  <csv_name>  (137) 
RdRp_knitwork_green_site_rna_tunnel_pure_split4000_batch005.csv

>  <fragmenstein_runtime>  (137) 
5.659309

>  <tags>  (137) 
['Fragmenstein placed']

>  <original ID>  (137) 
NHWWVGMPOUZEOS-UHFFFAOYSA-N

>  <fragmenstein_error>  (137) 
None

>  <original SMILES>  (137) 
O=C(OCc1cc(-c2cc3ccccc3o2)on1)C(=O)c1c[nH]c2ccccc12

>  <inchikey>  (137) 
NHWWVGMPOUZEOS-UHFFFAOYSA-N

>  <SLURM_JOB_NAME>  (137) 
BulkDock.place:Flavi_NS5_RdRp:RdRp_knitwork_green_site_rna_tunnel_pure_split4000_batch005

>  <scratch_subdir>  (137) 
/opt/xchem-fragalysis-2/maxwin/BulkDock/SCRATCH/217076/C31116-P82

>  <alias>  (137) 
None

>  <SLURM_JOB_ID>  (137) 
217076

>  <exports>  (137) 
['/opt/xchem-fragalysis-2/maxwin/BulkDock/OUTPUTS/RdRp_knitwork_green_site_rna_tunnel_pure_split4000_batch005_217076.sdf']

$$$$
98190
     RDKit          3D

 19 19  0  0  0  0  0  0  0  0999 V2000
  -30.5431  -30.0680  -19.5248 C   0  0  0  0  0  0  0  0  0  0  0  0
  -29.0762  -30.0508  -19.4520 C   0  0  0  0  0  0  0  0  0  0  0  0
  -28.1861  -30.0977  -20.4983 C   0  0  0  0  0  0  0  0  0  0  0  0
  -26.9373  -30.3064  -19.8992 C   0  0  0  0  0  0  0  0  0  0  0  0
  -25.8168  -30.6647  -20.5753 N   0  0  0  0  0  0  0  0  0  0  0  0
  -25.5800  -30.8601  -22.1027 C   0  0  0  0  0  0  0  0  0  0  0  0
  -26.2759  -30.6713  -22.9851 O   0  0  0  0  0  0  0  0  0  0  0  0
  -24.1519  -31.4675  -22.0644 N   0  0  0  0  0  0  0  0  0  0  0  0
  -23.3555  -32.0442  -23.1166 C   0  0  0  0  0  0  0  0  0  0  0  0
  -21.8693  -32.1472  -22.7774 C   0  0  2  0  0  0  0  0  0  0  0  0
  -21.1348  -32.9272  -23.8544 C   0  0  0  0  0  0  0  0  0  0  0  0
  -21.7038  -32.8010  -21.5148 O   0  0  0  0  0  0  0  0  0  0  0  0
  -27.0004  -30.2011  -18.5704 N   0  0  0  0  0  0  0  0  0  0  0  0
  -28.3159  -30.0615  -18.3014 N   0  0  0  0  0  0  0  0  0  0  0  0
  -28.7818  -29.9009  -16.9352 C   0  0  0  0  0  0  0  0  0  0  0  0
  -27.9424  -30.5446  -15.8562 C   0  0  0  0  0  0  0  0  0  0  0  0
  -28.4936  -30.2670  -14.6384 F   0  0  0  0  0  0  0  0  0  0  0  0
  -26.6770  -30.0914  -15.8008 F   0  0  0  0  0  0  0  0  0  0  0  0
  -27.9260  -31.8882  -15.9491 F   0  0  0  0  0  0  0  0  0  0  0  0
  1  2  1  0
  2  3  2  0
  3  4  1  0
  4  5  1  0
  5  6  1  0
  6  7  2  0
  6  8  1  0
  8  9  1  0
  9 10  1  0
 10 11  1  6
 10 12  1  0
  4 13  2  0
 13 14  1  0
 14 15  1  0
 15 16  1  0
 16 17  1  0
 16 18  1  0
 16 19  1  0
 14  2  1  0
M  END
>  <HIPPO Pose ID>  (138) 
98190

>  <fragmenstein_outcome>  (138) 
acceptable

>  <energy_score>  (138) 
-24.866547

>  <distance_score>  (138) 
0.89392

>  <fragmenstein_mode>  (138) 
expansion

>  <HIPPO Compound ID>  (138) 
54733

>  <name>  (138) 
OHJDLUXFTXKBRG-ZETCQYMHSA-N

>  <ref_pdb>  (138) 
z0215a

>  <ref_mols>  (138) 
z0211a,z0215a

>  <csv_name>  (138) 
RdRp_knitwork_green_site_rna_tunnel_pure_split4000_batch012.csv

>  <fragmenstein_runtime>  (138) 
11.082007

>  <tags>  (138) 
['Fragmenstein placed']

>  <original ID>  (138) 
OHJDLUXFTXKBRG-ZETCQYMHSA-N

>  <fragmenstein_error>  (138) 
None

>  <original SMILES>  (138) 
Cc1cc(NC(=O)NC[C@H](C)O)nn1CC(F)(F)F

>  <inchikey>  (138) 
OHJDLUXFTXKBRG-ZETCQYMHSA-N

>  <SLURM_JOB_NAME>  (138) 
BulkDock.place:Flavi_NS5_RdRp:RdRp_knitwork_green_site_rna_tunnel_pure_split4000_batch012

>  <scratch_subdir>  (138) 
/opt/xchem-fragalysis-2/maxwin/BulkDock/SCRATCH/217083/C54733-P104

>  <alias>  (138) 
None

>  <SLURM_JOB_ID>  (138) 
217083

>  <exports>  (138) 
['/opt/xchem-fragalysis-2/maxwin/BulkDock/OUTPUTS/RdRp_knitwork_green_site_rna_tunnel_pure_split4000_batch012_217083.sdf']

$$$$
98266
     RDKit          3D

 19 20  0  0  0  0  0  0  0  0999 V2000
  -26.2998  -30.3533  -15.4458 C   0  0  0  0  0  0  0  0  0  0  0  0
  -27.7211  -30.2448  -15.8494 C   0  0  0  0  0  0  0  0  0  0  0  0
  -28.7172  -30.3011  -14.9230 N   0  0  0  0  0  0  0  0  0  0  0  0
  -29.9453  -30.2481  -15.4403 N   0  0  0  0  0  0  0  0  0  0  0  0
  -29.7451  -30.0744  -16.7426 C   0  0  0  0  0  0  0  0  0  0  0  0
  -28.3844  -30.0915  -17.0533 C   0  0  0  0  0  0  0  0  0  0  0  0
  -27.7890  -30.0422  -18.4687 C   0  0  0  0  0  0  0  0  0  0  0  0
  -28.5055  -29.8636  -19.5636 N   0  0  0  0  0  0  0  0  0  0  0  0
  -27.7454  -30.0684  -20.7102 N   0  0  0  0  0  0  0  0  0  0  0  0
  -26.5303  -30.4268  -20.3889 C   0  0  0  0  0  0  0  0  0  0  0  0
  -25.4997  -30.8707  -21.1195 N   0  0  0  0  0  0  0  0  0  0  0  0
  -25.3712  -31.0784  -22.6345 C   0  0  0  0  0  0  0  0  0  0  0  0
  -26.0943  -30.8308  -23.4730 O   0  0  0  0  0  0  0  0  0  0  0  0
  -24.0074  -31.7934  -22.6743 N   0  0  0  0  0  0  0  0  0  0  0  0
  -23.2358  -32.2562  -23.7864 C   0  0  0  0  0  0  0  0  0  0  0  0
  -21.8776  -32.7127  -23.2569 C   0  0  1  0  0  0  0  0  0  0  0  0
  -20.8818  -32.9209  -24.3719 C   0  0  0  0  0  0  0  0  0  0  0  0
  -21.3638  -31.7496  -22.3231 O   0  0  0  0  0  0  0  0  0  0  0  0
  -26.1395  -30.3788  -18.7425 S   0  0  0  0  0  0  0  0  0  0  0  0
  1  2  1  0
  2  3  1  0
  3  4  1  0
  4  5  2  0
  5  6  1  0
  6  7  1  0
  7  8  2  0
  8  9  1  0
  9 10  2  0
 10 11  1  0
 11 12  1  0
 12 13  2  0
 12 14  1  0
 14 15  1  0
 15 16  1  0
 16 17  1  6
 16 18  1  0
 10 19  1  0
  6  2  2  0
 19  7  1  0
M  END
>  <HIPPO Pose ID>  (139) 
98266

>  <fragmenstein_outcome>  (139) 
acceptable

>  <energy_score>  (139) 
-84.10814

>  <distance_score>  (139) 
0.977395

>  <fragmenstein_mode>  (139) 
expansion

>  <HIPPO Compound ID>  (139) 
54903

>  <name>  (139) 
YEZOTGZZHJHWBN-RXMQYKEDSA-N

>  <ref_pdb>  (139) 
z0215a

>  <ref_mols>  (139) 
z0211a,z0215a

>  <csv_name>  (139) 
RdRp_knitwork_green_site_rna_tunnel_pure_split4000_batch012.csv

>  <fragmenstein_runtime>  (139) 
4.651742

>  <tags>  (139) 
['Fragmenstein placed']

>  <original ID>  (139) 
YEZOTGZZHJHWBN-RXMQYKEDSA-N

>  <fragmenstein_error>  (139) 
None

>  <original SMILES>  (139) 
Cc1[nH]ncc1-c1nnc(NC(=O)NC[C@@H](C)O)s1

>  <inchikey>  (139) 
YEZOTGZZHJHWBN-RXMQYKEDSA-N

>  <SLURM_JOB_NAME>  (139) 
BulkDock.place:Flavi_NS5_RdRp:RdRp_knitwork_green_site_rna_tunnel_pure_split4000_batch012

>  <scratch_subdir>  (139) 
/opt/xchem-fragalysis-2/maxwin/BulkDock/SCRATCH/217083/C54903-P104

>  <alias>  (139) 
None

>  <SLURM_JOB_ID>  (139) 
217083

>  <exports>  (139) 
['/opt/xchem-fragalysis-2/maxwin/BulkDock/OUTPUTS/RdRp_knitwork_green_site_rna_tunnel_pure_split4000_batch012_217083.sdf']

$$$$
98289
     RDKit          3D

 17 18  0  0  0  0  0  0  0  0999 V2000
  -30.4593  -30.0594  -19.4820 C   0  0  0  0  0  0  0  0  0  0  0  0
  -28.9934  -30.0280  -19.5352 C   0  0  0  0  0  0  0  0  0  0  0  0
  -28.1624  -30.0090  -20.6352 C   0  0  0  0  0  0  0  0  0  0  0  0
  -26.8918  -30.2940  -20.1136 C   0  0  0  0  0  0  0  0  0  0  0  0
  -25.8022  -30.6912  -20.8086 N   0  0  0  0  0  0  0  0  0  0  0  0
  -25.6080  -30.9125  -22.3320 C   0  0  0  0  0  0  0  0  0  0  0  0
  -26.3180  -30.7160  -23.2001 O   0  0  0  0  0  0  0  0  0  0  0  0
  -24.2063  -31.5731  -22.3152 N   0  0  0  0  0  0  0  0  0  0  0  0
  -23.3797  -32.0317  -23.3993 C   0  0  0  0  0  0  0  0  0  0  0  0
  -22.0325  -32.5424  -22.8911 C   0  0  1  0  0  0  0  0  0  0  0  0
  -21.0822  -32.8414  -24.0335 C   0  0  0  0  0  0  0  0  0  0  0  0
  -21.4320  -31.5798  -22.0216 O   0  0  0  0  0  0  0  0  0  0  0  0
  -26.8732  -30.2631  -18.7846 N   0  0  0  0  0  0  0  0  0  0  0  0
  -28.1672  -30.1524  -18.4450 N   0  0  0  0  0  0  0  0  0  0  0  0
  -28.6121  -30.5547  -17.0800 C   0  0  0  0  0  0  0  0  0  0  0  0
  -27.6253  -30.5974  -15.9262 C   0  0  0  0  0  0  0  0  0  0  0  0
  -28.7544  -29.6161  -15.9203 C   0  0  0  0  0  0  0  0  0  0  0  0
  1  2  1  0
  2  3  2  0
  3  4  1  0
  4  5  1  0
  5  6  1  0
  6  7  2  0
  6  8  1  0
  8  9  1  0
  9 10  1  0
 10 11  1  6
 10 12  1  0
  4 13  2  0
 13 14  1  0
 14 15  1  0
 15 16  1  0
 16 17  1  0
 14  2  1  0
 17 15  1  0
M  END
>  <HIPPO Pose ID>  (140) 
98289

>  <fragmenstein_outcome>  (140) 
acceptable

>  <energy_score>  (140) 
-30.250293

>  <distance_score>  (140) 
0.871954

>  <fragmenstein_mode>  (140) 
expansion

>  <HIPPO Compound ID>  (140) 
54945

>  <name>  (140) 
GZPXXQDQKSPFSB-MRVPVSSYSA-N

>  <ref_pdb>  (140) 
z0215a

>  <ref_mols>  (140) 
z0211a,z0215a

>  <csv_name>  (140) 
RdRp_knitwork_green_site_rna_tunnel_pure_split4000_batch012.csv

>  <fragmenstein_runtime>  (140) 
5.450071

>  <tags>  (140) 
['Fragmenstein placed']

>  <original ID>  (140) 
GZPXXQDQKSPFSB-MRVPVSSYSA-N

>  <fragmenstein_error>  (140) 
None

>  <original SMILES>  (140) 
Cc1cc(NC(=O)NC[C@@H](C)O)nn1C1CC1

>  <inchikey>  (140) 
GZPXXQDQKSPFSB-MRVPVSSYSA-N

>  <SLURM_JOB_NAME>  (140) 
BulkDock.place:Flavi_NS5_RdRp:RdRp_knitwork_green_site_rna_tunnel_pure_split4000_batch012

>  <scratch_subdir>  (140) 
/opt/xchem-fragalysis-2/maxwin/BulkDock/SCRATCH/217083/C54945-P104

>  <alias>  (140) 
None

>  <SLURM_JOB_ID>  (140) 
217083

>  <exports>  (140) 
['/opt/xchem-fragalysis-2/maxwin/BulkDock/OUTPUTS/RdRp_knitwork_green_site_rna_tunnel_pure_split4000_batch012_217083.sdf']

$$$$
98291
     RDKit          3D

 17 19  0  0  0  0  0  0  0  0999 V2000
  -25.4442  -34.0361  -19.4400 C   0  0  0  0  0  0  0  0  0  0  0  0
  -24.5349  -32.9953  -19.3978 C   0  0  0  0  0  0  0  0  0  0  0  0
  -24.9622  -31.7258  -19.7688 C   0  0  0  0  0  0  0  0  0  0  0  0
  -26.2818  -31.5051  -20.1666 C   0  0  0  0  0  0  0  0  0  0  0  0
  -26.7004  -30.1918  -20.4226 N   0  0  0  0  0  0  0  0  0  0  0  0
  -27.8539  -30.0365  -21.3114 C   0  0  0  0  0  0  0  0  0  0  0  0
  -29.0834  -29.4146  -20.6577 C   0  0  0  0  0  0  0  0  0  0  0  0
  -29.6034  -30.2204  -19.6067 O   0  0  0  0  0  0  0  0  0  0  0  0
  -28.9827  -30.1033  -18.3928 C   0  0  0  0  0  0  0  0  0  0  0  0
  -29.8033  -30.4762  -17.3194 C   0  0  0  0  0  0  0  0  0  0  0  0
  -29.3564  -30.4005  -16.0032 C   0  0  0  0  0  0  0  0  0  0  0  0
  -28.0696  -29.9515  -15.7478 C   0  0  0  0  0  0  0  0  0  0  0  0
  -27.2350  -29.6032  -16.8118 C   0  0  0  0  0  0  0  0  0  0  0  0
  -27.6639  -29.6940  -18.1540 C   0  0  0  0  0  0  0  0  0  0  0  0
  -26.6659  -29.3218  -19.2375 C   0  0  0  0  0  0  0  0  0  0  0  0
  -27.1382  -32.5375  -20.2860 N   0  0  0  0  0  0  0  0  0  0  0  0
  -26.7196  -33.7623  -19.8989 C   0  0  0  0  0  0  0  0  0  0  0  0
  1  2  2  0
  2  3  1  0
  3  4  2  0
  4  5  1  0
  5  6  1  0
  6  7  1  0
  7  8  1  0
  8  9  1  0
  9 10  2  0
 10 11  1  0
 11 12  2  0
 12 13  1  0
 13 14  2  0
 14 15  1  0
  4 16  1  0
 16 17  2  0
 17  1  1  0
 15  5  1  0
 14  9  1  0
M  END
>  <HIPPO Pose ID>  (141) 
98291

>  <fragmenstein_outcome>  (141) 
acceptable

>  <energy_score>  (141) 
-21.454072

>  <distance_score>  (141) 
0.999442

>  <fragmenstein_mode>  (141) 
expansion

>  <HIPPO Compound ID>  (141) 
32376

>  <name>  (141) 
ZLBFYANSAYZPQU-UHFFFAOYSA-N

>  <ref_pdb>  (141) 
z0581a

>  <ref_mols>  (141) 
d0472b,z0581a

>  <csv_name>  (141) 
RdRp_knitwork_green_site_rna_tunnel_pure_split4000_batch007.csv

>  <fragmenstein_runtime>  (141) 
1.939471

>  <tags>  (141) 
['Fragmenstein placed']

>  <original ID>  (141) 
ZLBFYANSAYZPQU-UHFFFAOYSA-N

>  <fragmenstein_error>  (141) 
None

>  <original SMILES>  (141) 
c1ccc(N2CCOc3ccccc3C2)nc1

>  <inchikey>  (141) 
ZLBFYANSAYZPQU-UHFFFAOYSA-N

>  <SLURM_JOB_NAME>  (141) 
BulkDock.place:Flavi_NS5_RdRp:RdRp_knitwork_green_site_rna_tunnel_pure_split4000_batch007

>  <scratch_subdir>  (141) 
/opt/xchem-fragalysis-2/maxwin/BulkDock/SCRATCH/217078/C32376-P144

>  <alias>  (141) 
None

>  <SLURM_JOB_ID>  (141) 
217078

>  <exports>  (141) 
['/opt/xchem-fragalysis-2/maxwin/BulkDock/OUTPUTS/RdRp_knitwork_green_site_rna_tunnel_pure_split4000_batch007_217078.sdf']

$$$$
98391
     RDKit          3D

 18 18  0  0  0  0  0  0  0  0999 V2000
  -25.9324  -31.3916  -14.2725 C   0  0  0  0  0  0  0  0  0  0  0  0
  -27.3163  -31.1119  -14.4797 O   0  0  0  0  0  0  0  0  0  0  0  0
  -27.4996  -30.4555  -15.7331 C   0  0  0  0  0  0  0  0  0  0  0  0
  -28.9613  -30.5382  -16.1462 C   0  0  0  0  0  0  0  0  0  0  0  0
  -29.3096  -29.6006  -17.2980 C   0  0  0  0  0  0  0  0  0  0  0  0
  -28.6518  -29.8489  -18.5652 N   0  0  0  0  0  0  0  0  0  0  0  0
  -29.2473  -29.9301  -19.7935 C   0  0  0  0  0  0  0  0  0  0  0  0
  -28.2437  -30.2458  -20.6789 C   0  0  0  0  0  0  0  0  0  0  0  0
  -27.0862  -30.3521  -19.8832 C   0  0  0  0  0  0  0  0  0  0  0  0
  -25.8890  -30.8780  -20.2453 N   0  0  0  0  0  0  0  0  0  0  0  0
  -25.4681  -31.6207  -21.5432 C   0  0  0  0  0  0  0  0  0  0  0  0
  -26.0528  -31.8174  -22.5008 O   0  0  0  0  0  0  0  0  0  0  0  0
  -24.0425  -32.0758  -21.1271 N   0  0  0  0  0  0  0  0  0  0  0  0
  -23.1056  -32.9504  -21.7978 C   0  0  0  0  0  0  0  0  0  0  0  0
  -22.2292  -32.1553  -22.7656 C   0  0  2  0  0  0  0  0  0  0  0  0
  -21.3969  -33.0414  -23.6684 C   0  0  0  0  0  0  0  0  0  0  0  0
  -21.3227  -31.3647  -21.9909 O   0  0  0  0  0  0  0  0  0  0  0  0
  -27.3139  -29.9744  -18.6245 N   0  0  0  0  0  0  0  0  0  0  0  0
  1  2  1  0
  2  3  1  0
  3  4  1  0
  4  5  1  0
  5  6  1  0
  6  7  1  0
  7  8  2  0
  8  9  1  0
  9 10  1  0
 10 11  1  0
 11 12  2  0
 11 13  1  0
 13 14  1  0
 14 15  1  0
 15 16  1  6
 15 17  1  0
  9 18  2  0
 18  6  1  0
M  END
>  <HIPPO Pose ID>  (142) 
98391

>  <fragmenstein_outcome>  (142) 
acceptable

>  <energy_score>  (142) 
-41.942987

>  <distance_score>  (142) 
0.716111

>  <fragmenstein_mode>  (142) 
expansion

>  <HIPPO Compound ID>  (142) 
55155

>  <name>  (142) 
VEAPMNAYWNOMRJ-VIFPVBQESA-N

>  <ref_pdb>  (142) 
z0215a

>  <ref_mols>  (142) 
z0211a,z0215a

>  <csv_name>  (142) 
RdRp_knitwork_green_site_rna_tunnel_pure_split4000_batch012.csv

>  <fragmenstein_runtime>  (142) 
4.600829

>  <tags>  (142) 
['Fragmenstein placed']

>  <original ID>  (142) 
VEAPMNAYWNOMRJ-VIFPVBQESA-N

>  <fragmenstein_error>  (142) 
None

>  <original SMILES>  (142) 
COCCCn1ccc(NC(=O)NC[C@H](C)O)n1

>  <inchikey>  (142) 
VEAPMNAYWNOMRJ-VIFPVBQESA-N

>  <SLURM_JOB_NAME>  (142) 
BulkDock.place:Flavi_NS5_RdRp:RdRp_knitwork_green_site_rna_tunnel_pure_split4000_batch012

>  <scratch_subdir>  (142) 
/opt/xchem-fragalysis-2/maxwin/BulkDock/SCRATCH/217083/C55155-P104

>  <alias>  (142) 
None

>  <SLURM_JOB_ID>  (142) 
217083

>  <exports>  (142) 
['/opt/xchem-fragalysis-2/maxwin/BulkDock/OUTPUTS/RdRp_knitwork_green_site_rna_tunnel_pure_split4000_batch012_217083.sdf']

$$$$
98416
     RDKit          3D

 19 20  0  0  0  0  0  0  0  0999 V2000
  -20.7926  -32.9717  -24.3421 C   0  0  0  0  0  0  0  0  0  0  0  0
  -21.7289  -32.6222  -23.2118 C   0  0  1  0  0  0  0  0  0  0  0  0
  -21.2115  -31.4894  -22.5129 O   0  0  0  0  0  0  0  0  0  0  0  0
  -23.1222  -32.3668  -23.7631 C   0  0  0  0  0  0  0  0  0  0  0  0
  -23.9272  -31.7447  -22.7701 N   0  0  0  0  0  0  0  0  0  0  0  0
  -25.2691  -31.0024  -22.8960 C   0  0  0  0  0  0  0  0  0  0  0  0
  -25.8703  -30.7252  -23.8174 O   0  0  0  0  0  0  0  0  0  0  0  0
  -25.6032  -30.8375  -21.4043 N   0  0  0  0  0  0  0  0  0  0  0  0
  -26.7248  -30.4064  -20.8071 C   0  0  0  0  0  0  0  0  0  0  0  0
  -27.9569  -30.0368  -21.3615 C   0  0  0  0  0  0  0  0  0  0  0  0
  -28.7625  -29.7878  -20.2749 C   0  0  0  0  0  0  0  0  0  0  0  0
  -27.9525  -29.9117  -19.1670 N   0  0  0  0  0  0  0  0  0  0  0  0
  -28.2987  -29.7921  -17.8032 C   0  0  0  0  0  0  0  0  0  0  0  0
  -29.6008  -29.8144  -17.4867 N   0  0  0  0  0  0  0  0  0  0  0  0
  -29.8546  -30.0049  -16.1902 C   0  0  0  0  0  0  0  0  0  0  0  0
  -28.8883  -30.1098  -15.2136 C   0  0  0  0  0  0  0  0  0  0  0  0
  -27.5909  -30.0120  -15.6295 C   0  0  0  0  0  0  0  0  0  0  0  0
  -27.2755  -29.8369  -16.9114 N   0  0  0  0  0  0  0  0  0  0  0  0
  -26.7042  -30.2970  -19.4933 N   0  0  0  0  0  0  0  0  0  0  0  0
  2  1  1  6
  2  3  1  0
  2  4  1  0
  4  5  1  0
  5  6  1  0
  6  7  2  0
  6  8  1  0
  8  9  1  0
  9 10  1  0
 10 11  2  0
 11 12  1  0
 12 13  1  0
 13 14  2  0
 14 15  1  0
 15 16  2  0
 16 17  1  0
 17 18  2  0
 12 19  1  0
 19  9  2  0
 18 13  1  0
M  END
>  <HIPPO Pose ID>  (143) 
98416

>  <fragmenstein_outcome>  (143) 
acceptable

>  <energy_score>  (143) 
-16.716605

>  <distance_score>  (143) 
0.999608

>  <fragmenstein_mode>  (143) 
expansion

>  <HIPPO Compound ID>  (143) 
55174

>  <name>  (143) 
VRFUMBMWIYOQKS-MRVPVSSYSA-N

>  <ref_pdb>  (143) 
z0211a

>  <ref_mols>  (143) 
z0211a,z0215a

>  <csv_name>  (143) 
RdRp_knitwork_green_site_rna_tunnel_pure_split4000_batch012.csv

>  <fragmenstein_runtime>  (143) 
4.503808

>  <tags>  (143) 
['Fragmenstein placed']

>  <original ID>  (143) 
VRFUMBMWIYOQKS-MRVPVSSYSA-N

>  <fragmenstein_error>  (143) 
None

>  <original SMILES>  (143) 
C[C@@H](O)CNC(=O)Nc1ccn(-c2ncccn2)n1

>  <inchikey>  (143) 
VRFUMBMWIYOQKS-MRVPVSSYSA-N

>  <SLURM_JOB_NAME>  (143) 
BulkDock.place:Flavi_NS5_RdRp:RdRp_knitwork_green_site_rna_tunnel_pure_split4000_batch012

>  <scratch_subdir>  (143) 
/opt/xchem-fragalysis-2/maxwin/BulkDock/SCRATCH/217083/C55174-P102

>  <alias>  (143) 
None

>  <SLURM_JOB_ID>  (143) 
217083

>  <exports>  (143) 
['/opt/xchem-fragalysis-2/maxwin/BulkDock/OUTPUTS/RdRp_knitwork_green_site_rna_tunnel_pure_split4000_batch012_217083.sdf']

$$$$
98483
     RDKit          3D

 18 18  0  0  0  0  0  0  0  0999 V2000
  -28.1924  -30.2379  -14.9656 C   0  0  0  0  0  0  0  0  0  0  0  0
  -27.7663  -29.8365  -16.2542 O   0  0  0  0  0  0  0  0  0  0  0  0
  -28.7783  -29.7594  -17.1577 C   0  0  0  0  0  0  0  0  0  0  0  0
  -29.9616  -29.6694  -16.8632 O   0  0  0  0  0  0  0  0  0  0  0  0
  -28.2159  -29.9018  -18.4675 C   0  0  0  0  0  0  0  0  0  0  0  0
  -26.8890  -30.0957  -18.8143 C   0  0  0  0  0  0  0  0  0  0  0  0
  -26.8879  -30.3524  -20.1897 C   0  0  0  0  0  0  0  0  0  0  0  0
  -25.8024  -30.7679  -20.8882 N   0  0  0  0  0  0  0  0  0  0  0  0
  -25.5743  -30.8762  -22.4172 C   0  0  0  0  0  0  0  0  0  0  0  0
  -26.2400  -30.5600  -23.2839 O   0  0  0  0  0  0  0  0  0  0  0  0
  -24.2225  -31.6325  -22.4178 N   0  0  0  0  0  0  0  0  0  0  0  0
  -23.4897  -32.2222  -23.4987 C   0  0  0  0  0  0  0  0  0  0  0  0
  -21.9842  -31.9725  -23.3934 C   0  0  2  0  0  0  0  0  0  0  0  0
  -21.2165  -33.1318  -23.9960 C   0  0  0  0  0  0  0  0  0  0  0  0
  -21.5837  -31.8297  -22.0252 O   0  0  0  0  0  0  0  0  0  0  0  0
  -28.1043  -30.2240  -20.7074 N   0  0  0  0  0  0  0  0  0  0  0  0
  -28.9038  -30.0243  -19.6452 N   0  0  0  0  0  0  0  0  0  0  0  0
  -30.3236  -30.1442  -19.8444 C   0  0  0  0  0  0  0  0  0  0  0  0
  1  2  1  0
  2  3  1  0
  3  4  2  0
  3  5  1  0
  5  6  2  0
  6  7  1  0
  7  8  1  0
  8  9  1  0
  9 10  2  0
  9 11  1  0
 11 12  1  0
 12 13  1  0
 13 14  1  1
 13 15  1  0
  7 16  2  0
 16 17  1  0
 17 18  1  0
 17  5  1  0
M  END
>  <HIPPO Pose ID>  (144) 
98483

>  <fragmenstein_outcome>  (144) 
acceptable

>  <energy_score>  (144) 
-30.224196

>  <distance_score>  (144) 
0.897217

>  <fragmenstein_mode>  (144) 
expansion

>  <HIPPO Compound ID>  (144) 
55262

>  <name>  (144) 
WVGFLLFSIMGYJN-LURJTMIESA-N

>  <ref_pdb>  (144) 
z0211a

>  <ref_mols>  (144) 
z0211a,z0215a

>  <csv_name>  (144) 
RdRp_knitwork_green_site_rna_tunnel_pure_split4000_batch012.csv

>  <fragmenstein_runtime>  (144) 
3.844751

>  <tags>  (144) 
['Fragmenstein placed']

>  <original ID>  (144) 
WVGFLLFSIMGYJN-LURJTMIESA-N

>  <fragmenstein_error>  (144) 
None

>  <original SMILES>  (144) 
COC(=O)c1cc(NC(=O)NC[C@H](C)O)nn1C

>  <inchikey>  (144) 
WVGFLLFSIMGYJN-LURJTMIESA-N

>  <SLURM_JOB_NAME>  (144) 
BulkDock.place:Flavi_NS5_RdRp:RdRp_knitwork_green_site_rna_tunnel_pure_split4000_batch012

>  <scratch_subdir>  (144) 
/opt/xchem-fragalysis-2/maxwin/BulkDock/SCRATCH/217083/C55262-P102

>  <alias>  (144) 
None

>  <SLURM_JOB_ID>  (144) 
217083

>  <exports>  (144) 
['/opt/xchem-fragalysis-2/maxwin/BulkDock/OUTPUTS/RdRp_knitwork_green_site_rna_tunnel_pure_split4000_batch012_217083.sdf']

$$$$
98497
     RDKit          3D

 22 25  0  0  0  0  0  0  0  0999 V2000
  -23.5225  -35.0283  -22.7095 C   0  0  0  0  0  0  0  0  0  0  0  0
  -22.5922  -35.6981  -21.9262 C   0  0  0  0  0  0  0  0  0  0  0  0
  -22.1740  -35.1376  -20.7214 C   0  0  0  0  0  0  0  0  0  0  0  0
  -22.7315  -33.9263  -20.3153 C   0  0  0  0  0  0  0  0  0  0  0  0
  -22.3638  -33.3964  -19.0303 N   0  0  0  0  0  0  0  0  0  0  0  0
  -21.3484  -33.9530  -18.2941 N   0  0  0  0  0  0  0  0  0  0  0  0
  -21.3758  -33.2923  -17.1372 C   0  0  0  0  0  0  0  0  0  0  0  0
  -22.3257  -32.2704  -17.1201 C   0  0  0  0  0  0  0  0  0  0  0  0
  -22.9249  -32.3208  -18.3612 C   0  0  0  0  0  0  0  0  0  0  0  0
  -24.0269  -31.5092  -18.9235 C   0  0  0  0  0  0  0  0  0  0  0  0
  -24.5002  -30.4987  -17.9816 N   0  0  0  0  0  0  0  0  0  0  0  0
  -25.8553  -30.1902  -18.0187 C   0  0  0  0  0  0  0  0  0  0  0  0
  -26.4656  -29.8443  -16.8072 C   0  0  0  0  0  0  0  0  0  0  0  0
  -27.8423  -29.6205  -16.7169 C   0  0  0  0  0  0  0  0  0  0  0  0
  -28.5945  -29.7332  -17.8906 C   0  0  0  0  0  0  0  0  0  0  0  0
  -29.9576  -29.6587  -18.2140 C   0  0  0  0  0  0  0  0  0  0  0  0
  -30.0653  -29.8685  -19.5699 C   0  0  0  0  0  0  0  0  0  0  0  0
  -28.8434  -30.0692  -20.1175 O   0  0  0  0  0  0  0  0  0  0  0  0
  -27.9537  -30.0030  -19.0910 C   0  0  0  0  0  0  0  0  0  0  0  0
  -26.5922  -30.2068  -19.2082 C   0  0  0  0  0  0  0  0  0  0  0  0
  -23.6440  -33.2575  -21.0790 N   0  0  0  0  0  0  0  0  0  0  0  0
  -24.0107  -33.8191  -22.2505 C   0  0  0  0  0  0  0  0  0  0  0  0
  1  2  2  0
  2  3  1  0
  3  4  2  0
  4  5  1  0
  5  6  1  0
  6  7  2  0
  7  8  1  0
  8  9  2  0
  9 10  1  0
 10 11  1  0
 11 12  1  0
 12 13  2  0
 13 14  1  0
 14 15  2  0
 15 16  1  0
 16 17  2  0
 17 18  1  0
 18 19  1  0
 19 20  2  0
  4 21  1  0
 21 22  2  0
 22  1  1  0
  9  5  1  0
 20 12  1  0
 19 15  1  0
M  END
>  <HIPPO Pose ID>  (145) 
98497

>  <fragmenstein_outcome>  (145) 
acceptable

>  <energy_score>  (145) 
-51.634567

>  <distance_score>  (145) 
0.987944

>  <fragmenstein_mode>  (145) 
expansion

>  <HIPPO Compound ID>  (145) 
34696

>  <name>  (145) 
MRQPOWXDFMVROF-UHFFFAOYSA-N

>  <ref_pdb>  (145) 
z0637a

>  <ref_mols>  (145) 
z0637a,3vws-b

>  <csv_name>  (145) 
RdRp_knitwork_green_site_rna_tunnel_pure_split4000_batch000.csv

>  <fragmenstein_runtime>  (145) 
20.099636

>  <tags>  (145) 
['Fragmenstein placed']

>  <original ID>  (145) 
MRQPOWXDFMVROF-UHFFFAOYSA-N

>  <fragmenstein_error>  (145) 
None

>  <original SMILES>  (145) 
c1ccc(-n2nccc2CNc2ccc3ccoc3c2)nc1

>  <inchikey>  (145) 
MRQPOWXDFMVROF-UHFFFAOYSA-N

>  <SLURM_JOB_NAME>  (145) 
BulkDock.place:Flavi_NS5_RdRp:RdRp_knitwork_green_site_rna_tunnel_pure_split4000_batch000

>  <scratch_subdir>  (145) 
/opt/xchem-fragalysis-2/maxwin/BulkDock/SCRATCH/217071/C34696-P151

>  <alias>  (145) 
None

>  <SLURM_JOB_ID>  (145) 
217071

>  <exports>  (145) 
['/opt/xchem-fragalysis-2/maxwin/BulkDock/OUTPUTS/RdRp_knitwork_green_site_rna_tunnel_pure_split4000_batch000_217071.sdf']

$$$$
98654
     RDKit          3D

 18 19  0  0  0  0  0  0  0  0999 V2000
  -20.9043  -32.9077  -24.3082 C   0  0  0  0  0  0  0  0  0  0  0  0
  -21.9137  -32.6938  -23.2048 C   0  0  1  0  0  0  0  0  0  0  0  0
  -21.3915  -31.7611  -22.2496 O   0  0  0  0  0  0  0  0  0  0  0  0
  -23.2556  -32.2081  -23.7525 C   0  0  0  0  0  0  0  0  0  0  0  0
  -24.0244  -31.6666  -22.6736 N   0  0  0  0  0  0  0  0  0  0  0  0
  -25.3977  -30.9682  -22.6784 C   0  0  0  0  0  0  0  0  0  0  0  0
  -26.0645  -30.6642  -23.5472 O   0  0  0  0  0  0  0  0  0  0  0  0
  -25.6148  -30.8271  -21.1573 N   0  0  0  0  0  0  0  0  0  0  0  0
  -26.6887  -30.3889  -20.4631 C   0  0  0  0  0  0  0  0  0  0  0  0
  -27.9867  -30.0363  -20.8489 C   0  0  0  0  0  0  0  0  0  0  0  0
  -28.7665  -29.8014  -19.7881 N   0  0  0  0  0  0  0  0  0  0  0  0
  -27.9459  -29.9989  -18.7160 N   0  0  0  0  0  0  0  0  0  0  0  0
  -28.4747  -30.0436  -17.4302 C   0  0  0  0  0  0  0  0  0  0  0  0
  -29.7529  -30.1461  -17.1598 N   0  0  0  0  0  0  0  0  0  0  0  0
  -29.8864  -30.3867  -15.8202 C   0  0  0  0  0  0  0  0  0  0  0  0
  -28.7331  -30.3158  -15.0734 C   0  0  0  0  0  0  0  0  0  0  0  0
  -27.3959  -30.0936  -16.1024 S   0  0  0  0  0  0  0  0  0  0  0  0
  -26.6580  -30.2616  -19.1032 C   0  0  0  0  0  0  0  0  0  0  0  0
  2  1  1  6
  2  3  1  0
  2  4  1  0
  4  5  1  0
  5  6  1  0
  6  7  2  0
  6  8  1  0
  8  9  1  0
  9 10  1  0
 10 11  2  0
 11 12  1  0
 12 13  1  0
 13 14  2  0
 14 15  1  0
 15 16  2  0
 16 17  1  0
 12 18  1  0
 18  9  2  0
 17 13  1  0
M  END
>  <HIPPO Pose ID>  (146) 
98654

>  <fragmenstein_outcome>  (146) 
acceptable

>  <energy_score>  (146) 
-23.384811

>  <distance_score>  (146) 
0.924047

>  <fragmenstein_mode>  (146) 
expansion

>  <HIPPO Compound ID>  (146) 
35052

>  <name>  (146) 
XGNMKLRZPGUESC-SSDOTTSWSA-N

>  <ref_pdb>  (146) 
z0215a

>  <ref_mols>  (146) 
z0211a,z0215a

>  <csv_name>  (146) 
RdRp_knitwork_green_site_rna_tunnel_pure_split4000_batch012.csv

>  <fragmenstein_runtime>  (146) 
5.33689

>  <tags>  (146) 
['Fragmenstein placed']

>  <original ID>  (146) 
XGNMKLRZPGUESC-SSDOTTSWSA-N

>  <fragmenstein_error>  (146) 
None

>  <original SMILES>  (146) 
C[C@@H](O)CNC(=O)Nc1cnn(-c2nccs2)c1

>  <inchikey>  (146) 
XGNMKLRZPGUESC-SSDOTTSWSA-N

>  <SLURM_JOB_NAME>  (146) 
BulkDock.place:Flavi_NS5_RdRp:RdRp_knitwork_green_site_rna_tunnel_pure_split4000_batch012

>  <scratch_subdir>  (146) 
/opt/xchem-fragalysis-2/maxwin/BulkDock/SCRATCH/217083/C35052-P104

>  <alias>  (146) 
None

>  <SLURM_JOB_ID>  (146) 
217083

>  <exports>  (146) 
['/opt/xchem-fragalysis-2/maxwin/BulkDock/OUTPUTS/RdRp_knitwork_green_site_rna_tunnel_pure_split4000_batch012_217083.sdf']

$$$$
98663
     RDKit          3D

 23 26  0  0  0  0  0  0  0  0999 V2000
  -28.5015  -29.3609  -16.0373 C   0  0  0  0  0  0  0  0  0  0  0  0
  -28.2548  -29.6335  -17.4905 C   0  0  0  0  0  0  0  0  0  0  0  0
  -29.3352  -29.5892  -18.3859 C   0  0  0  0  0  0  0  0  0  0  0  0
  -29.1770  -29.8429  -19.7432 C   0  0  0  0  0  0  0  0  0  0  0  0
  -27.9358  -30.2356  -20.2453 C   0  0  0  0  0  0  0  0  0  0  0  0
  -26.8475  -30.4093  -19.3645 C   0  0  0  0  0  0  0  0  0  0  0  0
  -25.5214  -30.9454  -19.5116 C   0  0  0  0  0  0  0  0  0  0  0  0
  -24.8706  -31.4997  -20.7484 C   0  0  0  0  0  0  0  0  0  0  0  0
  -25.6125  -32.6262  -21.4957 C   0  0  0  0  0  0  0  0  0  0  0  0
  -25.4423  -33.9943  -20.9815 N   0  0  0  0  0  0  0  0  0  0  0  0
  -24.6016  -34.9124  -21.7766 C   0  0  0  0  0  0  0  0  0  0  0  0
  -23.1765  -34.5033  -21.7338 C   0  0  0  0  0  0  0  0  0  0  0  0
  -22.4940  -33.4832  -22.3627 C   0  0  0  0  0  0  0  0  0  0  0  0
  -21.2746  -33.3387  -21.6634 C   0  0  0  0  0  0  0  0  0  0  0  0
  -20.2359  -32.3962  -21.6634 C   0  0  0  0  0  0  0  0  0  0  0  0
  -19.1763  -32.5757  -20.7651 C   0  0  0  0  0  0  0  0  0  0  0  0
  -19.1238  -33.6882  -19.9212 C   0  0  0  0  0  0  0  0  0  0  0  0
  -20.1509  -34.6372  -19.9094 C   0  0  0  0  0  0  0  0  0  0  0  0
  -21.2174  -34.4021  -20.7717 C   0  0  0  0  0  0  0  0  0  0  0  0
  -22.3658  -35.1317  -20.8321 O   0  0  0  0  0  0  0  0  0  0  0  0
  -24.9145  -30.8227  -18.2759 C   0  0  0  0  0  0  0  0  0  0  0  0
  -25.8116  -30.2799  -17.3976 N   0  0  0  0  0  0  0  0  0  0  0  0
  -27.0197  -30.0565  -18.0221 C   0  0  0  0  0  0  0  0  0  0  0  0
  1  2  1  0
  2  3  2  0
  3  4  1  0
  4  5  2  0
  5  6  1  0
  6  7  1  0
  7  8  1  0
  8  9  1  0
  9 10  1  0
 10 11  1  0
 11 12  1  0
 12 13  2  0
 13 14  1  0
 14 15  2  0
 15 16  1  0
 16 17  2  0
 17 18  1  0
 18 19  2  0
 19 20  1  0
  7 21  2  0
 21 22  1  0
 22 23  1  0
 23  2  1  0
 23  6  2  0
 20 12  1  0
 19 14  1  0
M  END
>  <HIPPO Pose ID>  (147) 
98663

>  <fragmenstein_outcome>  (147) 
acceptable

>  <energy_score>  (147) 
-8.381805

>  <distance_score>  (147) 
0.992371

>  <fragmenstein_mode>  (147) 
expansion

>  <HIPPO Compound ID>  (147) 
38717

>  <name>  (147) 
OOGKXLHLVVKBFE-UHFFFAOYSA-N

>  <ref_pdb>  (147) 
z0041a

>  <ref_mols>  (147) 
z0041a,3vws-b

>  <csv_name>  (147) 
RdRp_knitwork_green_site_rna_tunnel_pure_split4000_batch005.csv

>  <fragmenstein_runtime>  (147) 
3.968724

>  <tags>  (147) 
['Fragmenstein placed']

>  <original ID>  (147) 
OOGKXLHLVVKBFE-UHFFFAOYSA-N

>  <fragmenstein_error>  (147) 
None

>  <original SMILES>  (147) 
Cc1cccc2c(CCNCc3cc4ccccc4o3)c[nH]c12

>  <inchikey>  (147) 
OOGKXLHLVVKBFE-UHFFFAOYSA-N

>  <SLURM_JOB_NAME>  (147) 
BulkDock.place:Flavi_NS5_RdRp:RdRp_knitwork_green_site_rna_tunnel_pure_split4000_batch005

>  <scratch_subdir>  (147) 
/opt/xchem-fragalysis-2/maxwin/BulkDock/SCRATCH/217076/C38717-P82

>  <alias>  (147) 
None

>  <SLURM_JOB_ID>  (147) 
217076

>  <exports>  (147) 
['/opt/xchem-fragalysis-2/maxwin/BulkDock/OUTPUTS/RdRp_knitwork_green_site_rna_tunnel_pure_split4000_batch005_217076.sdf']

$$$$
98948
     RDKit          3D

 20 21  0  0  0  0  0  0  0  0999 V2000
  -31.0631  -30.0978  -20.3224 C   0  0  0  0  0  0  0  0  0  0  0  0
  -29.6327  -29.9385  -20.0717 C   0  0  0  0  0  0  0  0  0  0  0  0
  -28.5765  -29.9119  -20.9795 C   0  0  0  0  0  0  0  0  0  0  0  0
  -27.4506  -30.1563  -20.2164 C   0  0  0  0  0  0  0  0  0  0  0  0
  -26.2742  -30.5984  -20.7734 N   0  0  0  0  0  0  0  0  0  0  0  0
  -25.8548  -30.7385  -22.2773 C   0  0  0  0  0  0  0  0  0  0  0  0
  -26.4077  -30.4328  -23.2272 O   0  0  0  0  0  0  0  0  0  0  0  0
  -24.5150  -31.5069  -22.0990 N   0  0  0  0  0  0  0  0  0  0  0  0
  -23.5579  -31.9595  -23.0831 C   0  0  0  0  0  0  0  0  0  0  0  0
  -22.2371  -32.4636  -22.5071 C   0  0  1  0  0  0  0  0  0  0  0  0
  -21.2684  -32.8482  -23.6155 C   0  0  0  0  0  0  0  0  0  0  0  0
  -21.6310  -31.4583  -21.6976 O   0  0  0  0  0  0  0  0  0  0  0  0
  -27.8627  -30.0396  -18.8828 N   0  0  0  0  0  0  0  0  0  0  0  0
  -27.1991  -30.1204  -17.6336 C   0  0  0  0  0  0  0  0  0  0  0  0
  -27.9910  -30.1623  -16.4632 C   0  0  0  0  0  0  0  0  0  0  0  0
  -27.4067  -30.3352  -15.2174 C   0  0  0  0  0  0  0  0  0  0  0  0
  -26.0277  -30.4543  -15.1192 C   0  0  0  0  0  0  0  0  0  0  0  0
  -25.2362  -30.3838  -16.2632 C   0  0  0  0  0  0  0  0  0  0  0  0
  -25.8174  -30.2097  -17.5223 C   0  0  0  0  0  0  0  0  0  0  0  0
  -29.2092  -29.9080  -18.8203 N   0  0  0  0  0  0  0  0  0  0  0  0
  1  2  1  0
  2  3  1  0
  3  4  2  0
  4  5  1  0
  5  6  1  0
  6  7  2  0
  6  8  1  0
  8  9  1  0
  9 10  1  0
 10 11  1  6
 10 12  1  0
  4 13  1  0
 13 14  1  0
 14 15  2  0
 15 16  1  0
 16 17  2  0
 17 18  1  0
 18 19  2  0
 13 20  1  0
 20  2  2  0
 19 14  1  0
M  END
>  <HIPPO Pose ID>  (148) 
98948

>  <fragmenstein_outcome>  (148) 
acceptable

>  <energy_score>  (148) 
-6.224139

>  <distance_score>  (148) 
0.985805

>  <fragmenstein_mode>  (148) 
expansion

>  <HIPPO Compound ID>  (148) 
55996

>  <name>  (148) 
FGZCUNYQGFTGLS-LLVKDONJSA-N

>  <ref_pdb>  (148) 
z0215a

>  <ref_mols>  (148) 
z0211a,z0215a

>  <csv_name>  (148) 
RdRp_knitwork_green_site_rna_tunnel_pure_split4000_batch012.csv

>  <fragmenstein_runtime>  (148) 
6.014448

>  <tags>  (148) 
['Fragmenstein placed']

>  <original ID>  (148) 
FGZCUNYQGFTGLS-LLVKDONJSA-N

>  <fragmenstein_error>  (148) 
None

>  <original SMILES>  (148) 
Cc1cc(NC(=O)NC[C@@H](C)O)n(-c2ccccc2)n1

>  <inchikey>  (148) 
FGZCUNYQGFTGLS-LLVKDONJSA-N

>  <SLURM_JOB_NAME>  (148) 
BulkDock.place:Flavi_NS5_RdRp:RdRp_knitwork_green_site_rna_tunnel_pure_split4000_batch012

>  <scratch_subdir>  (148) 
/opt/xchem-fragalysis-2/maxwin/BulkDock/SCRATCH/217083/C55996-P104

>  <alias>  (148) 
None

>  <SLURM_JOB_ID>  (148) 
217083

>  <exports>  (148) 
['/opt/xchem-fragalysis-2/maxwin/BulkDock/OUTPUTS/RdRp_knitwork_green_site_rna_tunnel_pure_split4000_batch012_217083.sdf']

$$$$
99067
     RDKit          3D

 16 16  0  0  0  0  0  0  0  0999 V2000
  -21.2735  -32.9243  -23.8301 C   0  0  0  0  0  0  0  0  0  0  0  0
  -22.1445  -32.1788  -22.8388 C   0  0  2  0  0  0  0  0  0  0  0  0
  -21.2862  -31.3954  -22.0049 O   0  0  0  0  0  0  0  0  0  0  0  0
  -22.9507  -33.1143  -21.9386 C   0  0  0  0  0  0  0  0  0  0  0  0
  -23.8854  -32.3595  -21.1329 N   0  0  0  0  0  0  0  0  0  0  0  0
  -25.2195  -31.6661  -21.5244 C   0  0  0  0  0  0  0  0  0  0  0  0
  -25.7867  -31.6665  -22.5129 O   0  0  0  0  0  0  0  0  0  0  0  0
  -25.6044  -31.0584  -20.1465 N   0  0  0  0  0  0  0  0  0  0  0  0
  -26.7478  -30.4532  -19.7431 C   0  0  0  0  0  0  0  0  0  0  0  0
  -27.8798  -30.1779  -20.5343 C   0  0  0  0  0  0  0  0  0  0  0  0
  -28.8398  -29.7747  -19.6387 C   0  0  0  0  0  0  0  0  0  0  0  0
  -28.2561  -29.8342  -18.3986 N   0  0  0  0  0  0  0  0  0  0  0  0
  -28.8978  -29.5966  -17.1082 C   0  0  0  0  0  0  0  0  0  0  0  0
  -28.0563  -30.0083  -15.8989 C   0  0  0  0  0  0  0  0  0  0  0  0
  -30.2393  -30.3033  -16.9916 C   0  0  0  0  0  0  0  0  0  0  0  0
  -26.9457  -30.1392  -18.4618 N   0  0  0  0  0  0  0  0  0  0  0  0
  2  1  1  6
  2  3  1  0
  2  4  1  0
  4  5  1  0
  5  6  1  0
  6  7  2  0
  6  8  1  0
  8  9  1  0
  9 10  1  0
 10 11  2  0
 11 12  1  0
 12 13  1  0
 13 14  1  0
 13 15  1  0
 12 16  1  0
 16  9  2  0
M  END
>  <HIPPO Pose ID>  (149) 
99067

>  <fragmenstein_outcome>  (149) 
acceptable

>  <energy_score>  (149) 
-35.821528

>  <distance_score>  (149) 
0.834252

>  <fragmenstein_mode>  (149) 
expansion

>  <HIPPO Compound ID>  (149) 
56357

>  <name>  (149) 
GWSAGQSEASVBAY-QMMMGPOBSA-N

>  <ref_pdb>  (149) 
z0215a

>  <ref_mols>  (149) 
z0211a,z0215a

>  <csv_name>  (149) 
RdRp_knitwork_green_site_rna_tunnel_pure_split4000_batch012.csv

>  <fragmenstein_runtime>  (149) 
4.665824

>  <tags>  (149) 
['Fragmenstein placed']

>  <original ID>  (149) 
GWSAGQSEASVBAY-QMMMGPOBSA-N

>  <fragmenstein_error>  (149) 
None

>  <original SMILES>  (149) 
CC(C)n1ccc(NC(=O)NC[C@H](C)O)n1

>  <inchikey>  (149) 
GWSAGQSEASVBAY-QMMMGPOBSA-N

>  <SLURM_JOB_NAME>  (149) 
BulkDock.place:Flavi_NS5_RdRp:RdRp_knitwork_green_site_rna_tunnel_pure_split4000_batch012

>  <scratch_subdir>  (149) 
/opt/xchem-fragalysis-2/maxwin/BulkDock/SCRATCH/217083/C56357-P104

>  <alias>  (149) 
None

>  <SLURM_JOB_ID>  (149) 
217083

>  <exports>  (149) 
['/opt/xchem-fragalysis-2/maxwin/BulkDock/OUTPUTS/RdRp_knitwork_green_site_rna_tunnel_pure_split4000_batch012_217083.sdf']

$$$$
99180
     RDKit          3D

 17 18  0  0  0  0  0  0  0  0999 V2000
  -21.1647  -32.8951  -24.0050 C   0  0  0  0  0  0  0  0  0  0  0  0
  -21.9782  -32.4640  -22.8006 C   0  0  1  0  0  0  0  0  0  0  0  0
  -21.2965  -31.3957  -22.1424 O   0  0  0  0  0  0  0  0  0  0  0  0
  -23.3870  -32.0384  -23.2018 C   0  0  0  0  0  0  0  0  0  0  0  0
  -24.1461  -31.5992  -22.0648 N   0  0  0  0  0  0  0  0  0  0  0  0
  -25.5736  -31.0050  -21.9815 C   0  0  0  0  0  0  0  0  0  0  0  0
  -26.3558  -30.8582  -22.7924 O   0  0  0  0  0  0  0  0  0  0  0  0
  -25.6588  -30.7650  -20.4559 N   0  0  0  0  0  0  0  0  0  0  0  0
  -26.7117  -30.4044  -19.6814 C   0  0  0  0  0  0  0  0  0  0  0  0
  -26.6087  -30.0307  -18.3335 C   0  0  0  0  0  0  0  0  0  0  0  0
  -27.9059  -29.8531  -17.9143 C   0  0  0  0  0  0  0  0  0  0  0  0
  -28.2981  -29.4596  -16.4772 C   0  0  0  0  0  0  0  0  0  0  0  0
  -27.4852  -30.1477  -15.3964 C   0  0  0  0  0  0  0  0  0  0  0  0
  -28.9631  -30.3342  -15.4743 C   0  0  0  0  0  0  0  0  0  0  0  0
  -28.6894  -30.1035  -19.0019 N   0  0  0  0  0  0  0  0  0  0  0  0
  -30.1214  -30.1933  -19.0590 C   0  0  0  0  0  0  0  0  0  0  0  0
  -27.9766  -30.3943  -20.1025 N   0  0  0  0  0  0  0  0  0  0  0  0
  2  1  1  6
  2  3  1  0
  2  4  1  0
  4  5  1  0
  5  6  1  0
  6  7  2  0
  6  8  1  0
  8  9  1  0
  9 10  1  0
 10 11  2  0
 11 12  1  0
 12 13  1  0
 13 14  1  0
 11 15  1  0
 15 16  1  0
 15 17  1  0
 17  9  2  0
 14 12  1  0
M  END
>  <HIPPO Pose ID>  (150) 
99180

>  <fragmenstein_outcome>  (150) 
acceptable

>  <energy_score>  (150) 
-24.255989

>  <distance_score>  (150) 
0.998454

>  <fragmenstein_mode>  (150) 
expansion

>  <HIPPO Compound ID>  (150) 
56548

>  <name>  (150) 
GLKYHQBKOTZYGD-SSDOTTSWSA-N

>  <ref_pdb>  (150) 
z0211a

>  <ref_mols>  (150) 
z0211a,z0215a

>  <csv_name>  (150) 
RdRp_knitwork_green_site_rna_tunnel_pure_split4000_batch012.csv

>  <fragmenstein_runtime>  (150) 
4.798723

>  <tags>  (150) 
['Fragmenstein placed']

>  <original ID>  (150) 
GLKYHQBKOTZYGD-SSDOTTSWSA-N

>  <fragmenstein_error>  (150) 
None

>  <original SMILES>  (150) 
C[C@@H](O)CNC(=O)Nc1cc(C2CC2)n(C)n1

>  <inchikey>  (150) 
GLKYHQBKOTZYGD-SSDOTTSWSA-N

>  <SLURM_JOB_NAME>  (150) 
BulkDock.place:Flavi_NS5_RdRp:RdRp_knitwork_green_site_rna_tunnel_pure_split4000_batch012

>  <scratch_subdir>  (150) 
/opt/xchem-fragalysis-2/maxwin/BulkDock/SCRATCH/217083/C56548-P102

>  <alias>  (150) 
None

>  <SLURM_JOB_ID>  (150) 
217083

>  <exports>  (150) 
['/opt/xchem-fragalysis-2/maxwin/BulkDock/OUTPUTS/RdRp_knitwork_green_site_rna_tunnel_pure_split4000_batch012_217083.sdf']

$$$$
99183
     RDKit          3D

 11 11  0  0  0  0  0  0  0  0999 V2000
  -25.3532  -33.2037  -19.2206 C   0  0  0  0  0  0  0  0  0  0  0  0
  -26.5586  -32.7451  -20.0260 C   0  0  0  0  0  0  0  0  0  0  0  0
  -26.2314  -31.5635  -20.9040 C   0  0  0  0  0  0  0  0  0  0  0  0
  -26.1220  -31.6334  -22.0638 O   0  0  0  0  0  0  0  0  0  0  0  0
  -26.0523  -30.3548  -19.9485 N   0  0  0  0  0  0  0  0  0  0  0  0
  -25.6318  -29.0764  -20.2013 C   0  0  0  0  0  0  0  0  0  0  0  0
  -25.2180  -28.7032  -21.4674 C   0  0  0  0  0  0  0  0  0  0  0  0
  -24.6808  -27.4340  -21.6396 C   0  0  0  0  0  0  0  0  0  0  0  0
  -24.6375  -26.5693  -20.5593 C   0  0  0  0  0  0  0  0  0  0  0  0
  -25.1220  -27.0157  -19.3416 C   0  0  0  0  0  0  0  0  0  0  0  0
  -25.6021  -28.2574  -19.1346 N   0  0  0  0  0  0  0  0  0  0  0  0
  1  2  1  0
  2  3  1  0
  3  4  2  0
  3  5  1  0
  5  6  1  0
  6  7  2  0
  7  8  1  0
  8  9  2  0
  9 10  1  0
 10 11  2  0
 11  6  1  0
M  END
>  <HIPPO Pose ID>  (151) 
99183

>  <fragmenstein_outcome>  (151) 
acceptable

>  <energy_score>  (151) 
-7.491112

>  <distance_score>  (151) 
0.786783

>  <fragmenstein_mode>  (151) 
expansion

>  <HIPPO Compound ID>  (151) 
34580

>  <name>  (151) 
DCGZZKDVNPMJHZ-UHFFFAOYSA-N

>  <ref_pdb>  (151) 
d0472b

>  <ref_mols>  (151) 
d0472b,z0384a

>  <csv_name>  (151) 
RdRp_knitwork_green_site_rna_tunnel_pure_split4000_batch015.csv

>  <fragmenstein_runtime>  (151) 
2.070323

>  <tags>  (151) 
['Fragmenstein placed']

>  <original ID>  (151) 
DCGZZKDVNPMJHZ-UHFFFAOYSA-N

>  <fragmenstein_error>  (151) 
None

>  <original SMILES>  (151) 
CCC(=O)Nc1ccccn1

>  <inchikey>  (151) 
DCGZZKDVNPMJHZ-UHFFFAOYSA-N

>  <SLURM_JOB_NAME>  (151) 
BulkDock.place:Flavi_NS5_RdRp:RdRp_knitwork_green_site_rna_tunnel_pure_split4000_batch015

>  <scratch_subdir>  (151) 
/opt/xchem-fragalysis-2/maxwin/BulkDock/SCRATCH/217086/C34580-P41

>  <alias>  (151) 
None

>  <SLURM_JOB_ID>  (151) 
217086

>  <exports>  (151) 
['/opt/xchem-fragalysis-2/maxwin/BulkDock/OUTPUTS/RdRp_knitwork_green_site_rna_tunnel_pure_split4000_batch015_217086.sdf']

$$$$
99276
     RDKit          3D

 17 18  0  0  0  0  0  0  0  0999 V2000
  -21.1459  -33.0189  -24.2103 C   0  0  0  0  0  0  0  0  0  0  0  0
  -21.8660  -32.1413  -23.2053 C   0  0  2  0  0  0  0  0  0  0  0  0
  -21.5910  -32.6326  -21.8873 O   0  0  0  0  0  0  0  0  0  0  0  0
  -23.3686  -32.1622  -23.4771 C   0  0  0  0  0  0  0  0  0  0  0  0
  -24.1064  -31.5931  -22.3932 N   0  0  0  0  0  0  0  0  0  0  0  0
  -25.4955  -30.9191  -22.3739 C   0  0  0  0  0  0  0  0  0  0  0  0
  -26.1987  -30.6625  -23.2282 O   0  0  0  0  0  0  0  0  0  0  0  0
  -25.6912  -30.7897  -20.8469 N   0  0  0  0  0  0  0  0  0  0  0  0
  -26.7807  -30.4224  -20.1300 C   0  0  0  0  0  0  0  0  0  0  0  0
  -28.1011  -30.1555  -20.5317 C   0  0  0  0  0  0  0  0  0  0  0  0
  -28.8892  -29.8542  -19.4923 N   0  0  0  0  0  0  0  0  0  0  0  0
  -28.0471  -29.8951  -18.4419 N   0  0  0  0  0  0  0  0  0  0  0  0
  -28.4058  -29.3768  -17.1177 C   0  0  0  0  0  0  0  0  0  0  0  0
  -29.6049  -30.0180  -16.4220 C   0  0  0  0  0  0  0  0  0  0  0  0
  -28.7461  -30.1441  -15.1482 C   0  0  0  0  0  0  0  0  0  0  0  0
  -27.4961  -29.9084  -15.9826 C   0  0  0  0  0  0  0  0  0  0  0  0
  -26.7644  -30.2123  -18.7840 C   0  0  0  0  0  0  0  0  0  0  0  0
  2  1  1  6
  2  3  1  0
  2  4  1  0
  4  5  1  0
  5  6  1  0
  6  7  2  0
  6  8  1  0
  8  9  1  0
  9 10  1  0
 10 11  2  0
 11 12  1  0
 12 13  1  0
 13 14  1  0
 14 15  1  0
 15 16  1  0
 12 17  1  0
 17  9  2  0
 16 13  1  0
M  END
>  <HIPPO Pose ID>  (152) 
99276

>  <fragmenstein_outcome>  (152) 
acceptable

>  <energy_score>  (152) 
-4.546276

>  <distance_score>  (152) 
0.740693

>  <fragmenstein_mode>  (152) 
expansion

>  <HIPPO Compound ID>  (152) 
56764

>  <name>  (152) 
UUUBZXNFKQPYOY-QMMMGPOBSA-N

>  <ref_pdb>  (152) 
z0211a

>  <ref_mols>  (152) 
z0211a,z0215a

>  <csv_name>  (152) 
RdRp_knitwork_green_site_rna_tunnel_pure_split4000_batch012.csv

>  <fragmenstein_runtime>  (152) 
5.382527

>  <tags>  (152) 
['Fragmenstein placed']

>  <original ID>  (152) 
UUUBZXNFKQPYOY-QMMMGPOBSA-N

>  <fragmenstein_error>  (152) 
None

>  <original SMILES>  (152) 
C[C@H](O)CNC(=O)Nc1cnn(C2CCC2)c1

>  <inchikey>  (152) 
UUUBZXNFKQPYOY-QMMMGPOBSA-N

>  <SLURM_JOB_NAME>  (152) 
BulkDock.place:Flavi_NS5_RdRp:RdRp_knitwork_green_site_rna_tunnel_pure_split4000_batch012

>  <scratch_subdir>  (152) 
/opt/xchem-fragalysis-2/maxwin/BulkDock/SCRATCH/217083/C56764-P102

>  <alias>  (152) 
None

>  <SLURM_JOB_ID>  (152) 
217083

>  <exports>  (152) 
['/opt/xchem-fragalysis-2/maxwin/BulkDock/OUTPUTS/RdRp_knitwork_green_site_rna_tunnel_pure_split4000_batch012_217083.sdf']

$$$$
99288
     RDKit          3D

 17 18  0  0  0  0  0  0  0  0999 V2000
  -21.0760  -32.8765  -24.2714 C   0  0  0  0  0  0  0  0  0  0  0  0
  -22.0540  -32.2332  -23.3149 C   0  0  2  0  0  0  0  0  0  0  0  0
  -21.3074  -31.5389  -22.3049 O   0  0  0  0  0  0  0  0  0  0  0  0
  -22.9531  -33.2548  -22.6228 C   0  0  0  0  0  0  0  0  0  0  0  0
  -23.8155  -32.5443  -21.7142 N   0  0  0  0  0  0  0  0  0  0  0  0
  -25.2761  -32.0659  -21.8869 C   0  0  0  0  0  0  0  0  0  0  0  0
  -26.0091  -32.2372  -22.7387 O   0  0  0  0  0  0  0  0  0  0  0  0
  -25.4390  -31.2653  -20.5745 N   0  0  0  0  0  0  0  0  0  0  0  0
  -26.5255  -30.6357  -20.0576 C   0  0  0  0  0  0  0  0  0  0  0  0
  -27.8086  -30.3601  -20.5689 C   0  0  0  0  0  0  0  0  0  0  0  0
  -28.6191  -29.8469  -19.6295 N   0  0  0  0  0  0  0  0  0  0  0  0
  -27.8469  -29.8405  -18.5230 N   0  0  0  0  0  0  0  0  0  0  0  0
  -28.3378  -29.4591  -17.1903 C   0  0  0  0  0  0  0  0  0  0  0  0
  -29.4198  -30.3974  -16.6152 C   0  0  0  0  0  0  0  0  0  0  0  0
  -28.7060  -30.2518  -15.2545 C   0  0  0  0  0  0  0  0  0  0  0  0
  -27.4245  -29.9591  -16.0287 C   0  0  0  0  0  0  0  0  0  0  0  0
  -26.5531  -30.1877  -18.7677 C   0  0  0  0  0  0  0  0  0  0  0  0
  2  1  1  6
  2  3  1  0
  2  4  1  0
  4  5  1  0
  5  6  1  0
  6  7  2  0
  6  8  1  0
  8  9  1  0
  9 10  1  0
 10 11  2  0
 11 12  1  0
 12 13  1  0
 13 14  1  0
 14 15  1  0
 15 16  1  0
 12 17  1  0
 17  9  2  0
 16 13  1  0
M  END
>  <HIPPO Pose ID>  (153) 
99288

>  <fragmenstein_outcome>  (153) 
acceptable

>  <energy_score>  (153) 
-6.224972

>  <distance_score>  (153) 
0.89869

>  <fragmenstein_mode>  (153) 
expansion

>  <HIPPO Compound ID>  (153) 
56764

>  <name>  (153) 
UUUBZXNFKQPYOY-QMMMGPOBSA-N

>  <ref_pdb>  (153) 
z0215a

>  <ref_mols>  (153) 
z0211a,z0215a

>  <csv_name>  (153) 
RdRp_knitwork_green_site_rna_tunnel_pure_split4000_batch012.csv

>  <fragmenstein_runtime>  (153) 
5.692557

>  <tags>  (153) 
['Fragmenstein placed']

>  <original ID>  (153) 
UUUBZXNFKQPYOY-QMMMGPOBSA-N

>  <fragmenstein_error>  (153) 
None

>  <original SMILES>  (153) 
C[C@H](O)CNC(=O)Nc1cnn(C2CCC2)c1

>  <inchikey>  (153) 
UUUBZXNFKQPYOY-QMMMGPOBSA-N

>  <SLURM_JOB_NAME>  (153) 
BulkDock.place:Flavi_NS5_RdRp:RdRp_knitwork_green_site_rna_tunnel_pure_split4000_batch012

>  <scratch_subdir>  (153) 
/opt/xchem-fragalysis-2/maxwin/BulkDock/SCRATCH/217083/C56764-P104

>  <alias>  (153) 
None

>  <SLURM_JOB_ID>  (153) 
217083

>  <exports>  (153) 
['/opt/xchem-fragalysis-2/maxwin/BulkDock/OUTPUTS/RdRp_knitwork_green_site_rna_tunnel_pure_split4000_batch012_217083.sdf']

$$$$
99305
     RDKit          3D

 17 18  0  0  0  0  0  0  0  0999 V2000
  -21.1779  -32.8099  -23.9742 C   0  0  0  0  0  0  0  0  0  0  0  0
  -22.1820  -32.4904  -22.8850 C   0  0  1  0  0  0  0  0  0  0  0  0
  -21.5971  -31.5617  -21.9654 O   0  0  0  0  0  0  0  0  0  0  0  0
  -23.4864  -31.9191  -23.4534 C   0  0  0  0  0  0  0  0  0  0  0  0
  -24.3132  -31.3848  -22.4017 N   0  0  0  0  0  0  0  0  0  0  0  0
  -25.7926  -30.9240  -22.4241 C   0  0  0  0  0  0  0  0  0  0  0  0
  -26.5225  -30.8377  -23.2928 O   0  0  0  0  0  0  0  0  0  0  0  0
  -25.9932  -30.6248  -20.9100 N   0  0  0  0  0  0  0  0  0  0  0  0
  -27.1047  -30.2717  -20.2281 C   0  0  0  0  0  0  0  0  0  0  0  0
  -28.3993  -30.0155  -20.7222 C   0  0  0  0  0  0  0  0  0  0  0  0
  -29.1864  -29.9395  -19.5935 C   0  0  0  0  0  0  0  0  0  0  0  0
  -28.3365  -30.1087  -18.5339 N   0  0  0  0  0  0  0  0  0  0  0  0
  -28.7772  -30.4869  -17.1839 C   0  0  0  0  0  0  0  0  0  0  0  0
  -27.6326  -30.5578  -16.1336 C   0  0  0  0  0  0  0  0  0  0  0  0
  -28.6192  -29.9195  -15.1515 C   0  0  0  0  0  0  0  0  0  0  0  0
  -29.3412  -29.3233  -16.3724 C   0  0  0  0  0  0  0  0  0  0  0  0
  -27.0551  -30.2136  -18.9016 N   0  0  0  0  0  0  0  0  0  0  0  0
  2  1  1  6
  2  3  1  0
  2  4  1  0
  4  5  1  0
  5  6  1  0
  6  7  2  0
  6  8  1  0
  8  9  1  0
  9 10  1  0
 10 11  2  0
 11 12  1  0
 12 13  1  0
 13 14  1  0
 14 15  1  0
 15 16  1  0
 12 17  1  0
 17  9  2  0
 16 13  1  0
M  END
>  <HIPPO Pose ID>  (154) 
99305

>  <fragmenstein_outcome>  (154) 
acceptable

>  <energy_score>  (154) 
-8.271996

>  <distance_score>  (154) 
0.736324

>  <fragmenstein_mode>  (154) 
expansion

>  <HIPPO Compound ID>  (154) 
56765

>  <name>  (154) 
GTOPDHADXIWWQI-MRVPVSSYSA-N

>  <ref_pdb>  (154) 
z0215a

>  <ref_mols>  (154) 
z0211a,z0215a

>  <csv_name>  (154) 
RdRp_knitwork_green_site_rna_tunnel_pure_split4000_batch012.csv

>  <fragmenstein_runtime>  (154) 
3.659463

>  <tags>  (154) 
['Fragmenstein placed']

>  <original ID>  (154) 
GTOPDHADXIWWQI-MRVPVSSYSA-N

>  <fragmenstein_error>  (154) 
None

>  <original SMILES>  (154) 
C[C@@H](O)CNC(=O)Nc1ccn(C2CCC2)n1

>  <inchikey>  (154) 
GTOPDHADXIWWQI-MRVPVSSYSA-N

>  <SLURM_JOB_NAME>  (154) 
BulkDock.place:Flavi_NS5_RdRp:RdRp_knitwork_green_site_rna_tunnel_pure_split4000_batch012

>  <scratch_subdir>  (154) 
/opt/xchem-fragalysis-2/maxwin/BulkDock/SCRATCH/217083/C56765-P104

>  <alias>  (154) 
None

>  <SLURM_JOB_ID>  (154) 
217083

>  <exports>  (154) 
['/opt/xchem-fragalysis-2/maxwin/BulkDock/OUTPUTS/RdRp_knitwork_green_site_rna_tunnel_pure_split4000_batch012_217083.sdf']

$$$$
99355
     RDKit          3D

 15 15  0  0  0  0  0  0  0  0999 V2000
  -28.2417  -29.8980  -15.8036 C   0  0  0  0  0  0  0  0  0  0  0  0
  -29.1378  -29.6832  -17.0053 C   0  0  0  0  0  0  0  0  0  0  0  0
  -28.5567  -29.9331  -18.3081 N   0  0  0  0  0  0  0  0  0  0  0  0
  -29.2733  -29.9452  -19.4720 C   0  0  0  0  0  0  0  0  0  0  0  0
  -28.3572  -30.1399  -20.4686 C   0  0  0  0  0  0  0  0  0  0  0  0
  -27.1243  -30.3275  -19.8078 C   0  0  0  0  0  0  0  0  0  0  0  0
  -25.9764  -30.6688  -20.4483 N   0  0  0  0  0  0  0  0  0  0  0  0
  -25.6777  -30.8189  -21.9687 C   0  0  0  0  0  0  0  0  0  0  0  0
  -26.3360  -30.6018  -22.8716 O   0  0  0  0  0  0  0  0  0  0  0  0
  -24.2594  -31.4467  -21.8898 N   0  0  0  0  0  0  0  0  0  0  0  0
  -23.4315  -32.0109  -22.9233 C   0  0  0  0  0  0  0  0  0  0  0  0
  -21.9490  -32.1005  -22.5731 C   0  0  2  0  0  0  0  0  0  0  0  0
  -21.1917  -32.8644  -23.6498 C   0  0  0  0  0  0  0  0  0  0  0  0
  -21.7824  -32.7816  -21.3281 O   0  0  0  0  0  0  0  0  0  0  0  0
  -27.2345  -30.1625  -18.4870 N   0  0  0  0  0  0  0  0  0  0  0  0
  1  2  1  0
  2  3  1  0
  3  4  1  0
  4  5  2  0
  5  6  1  0
  6  7  1  0
  7  8  1  0
  8  9  2  0
  8 10  1  0
 10 11  1  0
 11 12  1  0
 12 13  1  6
 12 14  1  0
  6 15  2  0
 15  3  1  0
M  END
>  <HIPPO Pose ID>  (155) 
99355

>  <fragmenstein_outcome>  (155) 
acceptable

>  <energy_score>  (155) 
-14.390925

>  <distance_score>  (155) 
0.661566

>  <fragmenstein_mode>  (155) 
expansion

>  <HIPPO Compound ID>  (155) 
56870

>  <name>  (155) 
JHRKPEKHFJFZHD-ZETCQYMHSA-N

>  <ref_pdb>  (155) 
z0211a

>  <ref_mols>  (155) 
z0211a,z0215a

>  <csv_name>  (155) 
RdRp_knitwork_green_site_rna_tunnel_pure_split4000_batch012.csv

>  <fragmenstein_runtime>  (155) 
1.916533

>  <tags>  (155) 
['Fragmenstein placed']

>  <original ID>  (155) 
JHRKPEKHFJFZHD-ZETCQYMHSA-N

>  <fragmenstein_error>  (155) 
None

>  <original SMILES>  (155) 
CCn1ccc(NC(=O)NC[C@H](C)O)n1

>  <inchikey>  (155) 
JHRKPEKHFJFZHD-ZETCQYMHSA-N

>  <SLURM_JOB_NAME>  (155) 
BulkDock.place:Flavi_NS5_RdRp:RdRp_knitwork_green_site_rna_tunnel_pure_split4000_batch012

>  <scratch_subdir>  (155) 
/opt/xchem-fragalysis-2/maxwin/BulkDock/SCRATCH/217083/C56870-P102

>  <alias>  (155) 
None

>  <SLURM_JOB_ID>  (155) 
217083

>  <exports>  (155) 
['/opt/xchem-fragalysis-2/maxwin/BulkDock/OUTPUTS/RdRp_knitwork_green_site_rna_tunnel_pure_split4000_batch012_217083.sdf']

$$$$
99371
     RDKit          3D

 15 15  0  0  0  0  0  0  0  0999 V2000
  -28.8783  -30.7461  -16.2196 C   0  0  0  0  0  0  0  0  0  0  0  0
  -29.1291  -29.6470  -17.2299 C   0  0  0  0  0  0  0  0  0  0  0  0
  -28.6245  -29.9147  -18.5609 N   0  0  0  0  0  0  0  0  0  0  0  0
  -29.3539  -29.9023  -19.7161 C   0  0  0  0  0  0  0  0  0  0  0  0
  -28.4507  -30.0646  -20.7359 C   0  0  0  0  0  0  0  0  0  0  0  0
  -27.2123  -30.2628  -20.0931 C   0  0  0  0  0  0  0  0  0  0  0  0
  -26.0551  -30.6232  -20.7058 N   0  0  0  0  0  0  0  0  0  0  0  0
  -25.7132  -30.7505  -22.2200 C   0  0  0  0  0  0  0  0  0  0  0  0
  -26.3375  -30.4960  -23.1397 O   0  0  0  0  0  0  0  0  0  0  0  0
  -24.3114  -31.4160  -22.1103 N   0  0  0  0  0  0  0  0  0  0  0  0
  -23.4619  -31.9784  -23.1322 C   0  0  0  0  0  0  0  0  0  0  0  0
  -22.0004  -32.1376  -22.7063 C   0  0  2  0  0  0  0  0  0  0  0  0
  -21.2067  -32.8767  -23.7722 C   0  0  0  0  0  0  0  0  0  0  0  0
  -21.9285  -32.8630  -21.4745 O   0  0  0  0  0  0  0  0  0  0  0  0
  -27.3081  -30.1246  -18.7667 N   0  0  0  0  0  0  0  0  0  0  0  0
  1  2  1  0
  2  3  1  0
  3  4  1  0
  4  5  2  0
  5  6  1  0
  6  7  1  0
  7  8  1  0
  8  9  2  0
  8 10  1  0
 10 11  1  0
 11 12  1  0
 12 13  1  6
 12 14  1  0
  6 15  2  0
 15  3  1  0
M  END
>  <HIPPO Pose ID>  (156) 
99371

>  <fragmenstein_outcome>  (156) 
acceptable

>  <energy_score>  (156) 
-17.014031

>  <distance_score>  (156) 
0.801988

>  <fragmenstein_mode>  (156) 
expansion

>  <HIPPO Compound ID>  (156) 
56870

>  <name>  (156) 
JHRKPEKHFJFZHD-ZETCQYMHSA-N

>  <ref_pdb>  (156) 
z0215a

>  <ref_mols>  (156) 
z0211a,z0215a

>  <csv_name>  (156) 
RdRp_knitwork_green_site_rna_tunnel_pure_split4000_batch012.csv

>  <fragmenstein_runtime>  (156) 
4.015626

>  <tags>  (156) 
['Fragmenstein placed']

>  <original ID>  (156) 
JHRKPEKHFJFZHD-ZETCQYMHSA-N

>  <fragmenstein_error>  (156) 
None

>  <original SMILES>  (156) 
CCn1ccc(NC(=O)NC[C@H](C)O)n1

>  <inchikey>  (156) 
JHRKPEKHFJFZHD-ZETCQYMHSA-N

>  <SLURM_JOB_NAME>  (156) 
BulkDock.place:Flavi_NS5_RdRp:RdRp_knitwork_green_site_rna_tunnel_pure_split4000_batch012

>  <scratch_subdir>  (156) 
/opt/xchem-fragalysis-2/maxwin/BulkDock/SCRATCH/217083/C56870-P104

>  <alias>  (156) 
None

>  <SLURM_JOB_ID>  (156) 
217083

>  <exports>  (156) 
['/opt/xchem-fragalysis-2/maxwin/BulkDock/OUTPUTS/RdRp_knitwork_green_site_rna_tunnel_pure_split4000_batch012_217083.sdf']

$$$$
99378
     RDKit          3D

 15 15  0  0  0  0  0  0  0  0999 V2000
  -28.8080  -29.5852  -16.1710 C   0  0  0  0  0  0  0  0  0  0  0  0
  -29.2934  -30.2750  -17.4260 C   0  0  0  0  0  0  0  0  0  0  0  0
  -28.5363  -29.9588  -18.6228 N   0  0  0  0  0  0  0  0  0  0  0  0
  -27.2092  -30.2178  -18.8430 C   0  0  0  0  0  0  0  0  0  0  0  0
  -27.0624  -30.2247  -20.2110 C   0  0  0  0  0  0  0  0  0  0  0  0
  -25.9763  -30.6745  -20.9012 N   0  0  0  0  0  0  0  0  0  0  0  0
  -25.6931  -30.6966  -22.4350 C   0  0  0  0  0  0  0  0  0  0  0  0
  -26.3009  -30.2728  -23.3026 O   0  0  0  0  0  0  0  0  0  0  0  0
  -24.3960  -31.5526  -22.4417 N   0  0  0  0  0  0  0  0  0  0  0  0
  -23.6605  -32.1245  -23.5423 C   0  0  0  0  0  0  0  0  0  0  0  0
  -22.1376  -32.0072  -23.3997 C   0  0  2  0  0  0  0  0  0  0  0  0
  -21.4390  -33.2049  -24.0115 C   0  0  0  0  0  0  0  0  0  0  0  0
  -21.7639  -31.9181  -22.0176 O   0  0  0  0  0  0  0  0  0  0  0  0
  -28.2950  -29.7762  -20.7156 C   0  0  0  0  0  0  0  0  0  0  0  0
  -29.1991  -29.6170  -19.7466 N   0  0  0  0  0  0  0  0  0  0  0  0
  1  2  1  0
  2  3  1  0
  3  4  1  0
  4  5  2  0
  5  6  1  0
  6  7  1  0
  7  8  2  0
  7  9  1  0
  9 10  1  0
 10 11  1  0
 11 12  1  1
 11 13  1  0
  5 14  1  0
 14 15  2  0
 15  3  1  0
M  END
>  <HIPPO Pose ID>  (157) 
99378

>  <fragmenstein_outcome>  (157) 
acceptable

>  <energy_score>  (157) 
-12.711973

>  <distance_score>  (157) 
0.890011

>  <fragmenstein_mode>  (157) 
expansion

>  <HIPPO Compound ID>  (157) 
56905

>  <name>  (157) 
TXDQKHUNHCSCLP-ZETCQYMHSA-N

>  <ref_pdb>  (157) 
z0215a

>  <ref_mols>  (157) 
z0211a,z0215a

>  <csv_name>  (157) 
RdRp_knitwork_green_site_rna_tunnel_pure_split4000_batch012.csv

>  <fragmenstein_runtime>  (157) 
3.22479

>  <tags>  (157) 
['Fragmenstein placed']

>  <original ID>  (157) 
TXDQKHUNHCSCLP-ZETCQYMHSA-N

>  <fragmenstein_error>  (157) 
None

>  <original SMILES>  (157) 
CCn1cc(NC(=O)NC[C@H](C)O)cn1

>  <inchikey>  (157) 
TXDQKHUNHCSCLP-ZETCQYMHSA-N

>  <SLURM_JOB_NAME>  (157) 
BulkDock.place:Flavi_NS5_RdRp:RdRp_knitwork_green_site_rna_tunnel_pure_split4000_batch012

>  <scratch_subdir>  (157) 
/opt/xchem-fragalysis-2/maxwin/BulkDock/SCRATCH/217083/C56905-P104

>  <alias>  (157) 
None

>  <SLURM_JOB_ID>  (157) 
217083

>  <exports>  (157) 
['/opt/xchem-fragalysis-2/maxwin/BulkDock/OUTPUTS/RdRp_knitwork_green_site_rna_tunnel_pure_split4000_batch012_217083.sdf']

$$$$
99670
     RDKit          3D

 17 17  0  0  0  0  0  0  0  0999 V2000
  -29.1548  -30.1528  -15.1363 C   0  0  0  0  0  0  0  0  0  0  0  0
  -28.4000  -30.5118  -16.4006 C   0  0  0  0  0  0  0  0  0  0  0  0
  -26.9144  -30.3680  -16.0794 C   0  0  0  0  0  0  0  0  0  0  0  0
  -28.8890  -29.5984  -17.5319 C   0  0  0  0  0  0  0  0  0  0  0  0
  -28.4454  -29.8994  -18.8766 N   0  0  0  0  0  0  0  0  0  0  0  0
  -29.2107  -29.8284  -20.0077 C   0  0  0  0  0  0  0  0  0  0  0  0
  -28.3512  -30.0243  -21.0602 C   0  0  0  0  0  0  0  0  0  0  0  0
  -27.1090  -30.2993  -20.4609 C   0  0  0  0  0  0  0  0  0  0  0  0
  -25.9873  -30.7253  -21.0898 N   0  0  0  0  0  0  0  0  0  0  0  0
  -25.6613  -30.8284  -22.6062 C   0  0  0  0  0  0  0  0  0  0  0  0
  -26.2668  -30.4976  -23.5136 O   0  0  0  0  0  0  0  0  0  0  0  0
  -24.3191  -31.6051  -22.5250 N   0  0  0  0  0  0  0  0  0  0  0  0
  -23.5236  -32.2006  -23.5644 C   0  0  0  0  0  0  0  0  0  0  0  0
  -22.0191  -32.1161  -23.3009 C   0  0  2  0  0  0  0  0  0  0  0  0
  -21.2708  -33.0659  -24.2182 C   0  0  0  0  0  0  0  0  0  0  0  0
  -21.7387  -32.4598  -21.9373 O   0  0  0  0  0  0  0  0  0  0  0  0
  -27.1573  -30.1780  -19.1339 N   0  0  0  0  0  0  0  0  0  0  0  0
  1  2  1  0
  2  3  1  0
  2  4  1  0
  4  5  1  0
  5  6  1  0
  6  7  2  0
  7  8  1  0
  8  9  1  0
  9 10  1  0
 10 11  2  0
 10 12  1  0
 12 13  1  0
 13 14  1  0
 14 15  1  6
 14 16  1  0
  8 17  2  0
 17  5  1  0
M  END
>  <HIPPO Pose ID>  (158) 
99670

>  <fragmenstein_outcome>  (158) 
acceptable

>  <energy_score>  (158) 
-51.567929

>  <distance_score>  (158) 
0.868466

>  <fragmenstein_mode>  (158) 
expansion

>  <HIPPO Compound ID>  (158) 
57242

>  <name>  (158) 
NXRXGNFDJJVTBO-VIFPVBQESA-N

>  <ref_pdb>  (158) 
z0215a

>  <ref_mols>  (158) 
z0211a,z0215a

>  <csv_name>  (158) 
RdRp_knitwork_green_site_rna_tunnel_pure_split4000_batch012.csv

>  <fragmenstein_runtime>  (158) 
5.195027

>  <tags>  (158) 
['Fragmenstein placed']

>  <original ID>  (158) 
NXRXGNFDJJVTBO-VIFPVBQESA-N

>  <fragmenstein_error>  (158) 
None

>  <original SMILES>  (158) 
CC(C)Cn1ccc(NC(=O)NC[C@H](C)O)n1

>  <inchikey>  (158) 
NXRXGNFDJJVTBO-VIFPVBQESA-N

>  <SLURM_JOB_NAME>  (158) 
BulkDock.place:Flavi_NS5_RdRp:RdRp_knitwork_green_site_rna_tunnel_pure_split4000_batch012

>  <scratch_subdir>  (158) 
/opt/xchem-fragalysis-2/maxwin/BulkDock/SCRATCH/217083/C57242-P104

>  <alias>  (158) 
None

>  <SLURM_JOB_ID>  (158) 
217083

>  <exports>  (158) 
['/opt/xchem-fragalysis-2/maxwin/BulkDock/OUTPUTS/RdRp_knitwork_green_site_rna_tunnel_pure_split4000_batch012_217083.sdf']

$$$$
99856
     RDKit          3D

 19 20  0  0  0  0  0  0  0  0999 V2000
  -25.5549  -30.7260  -22.7693 O   0  0  0  0  0  0  0  0  0  0  0  0
  -25.3893  -31.3161  -21.8073 C   0  0  0  0  0  0  0  0  0  0  0  0
  -24.3999  -32.4692  -21.4966 N   0  0  0  0  0  0  0  0  0  0  0  0
  -23.3606  -33.0434  -22.3010 C   0  0  0  0  0  0  0  0  0  0  0  0
  -22.0983  -32.1750  -22.3189 C   0  0  2  0  0  0  0  0  0  0  0  0
  -21.0111  -32.9081  -22.8993 O   0  0  0  0  0  0  0  0  0  0  0  0
  -21.7104  -31.5758  -20.9423 C   0  0  0  0  0  0  0  0  0  0  0  0
  -21.9288  -32.3707  -19.7465 N   0  0  0  0  0  0  0  0  0  0  0  0
  -22.7018  -32.0711  -18.6530 C   0  0  0  0  0  0  0  0  0  0  0  0
  -22.4323  -33.0815  -17.7645 C   0  0  0  0  0  0  0  0  0  0  0  0
  -21.5391  -33.9468  -18.3244 N   0  0  0  0  0  0  0  0  0  0  0  0
  -21.2428  -33.5061  -19.5411 N   0  0  0  0  0  0  0  0  0  0  0  0
  -26.1106  -31.2230  -20.4371 N   0  0  0  0  0  0  0  0  0  0  0  0
  -27.1933  -30.4727  -20.0515 C   0  0  0  0  0  0  0  0  0  0  0  0
  -28.0010  -29.8404  -20.9757 C   0  0  0  0  0  0  0  0  0  0  0  0
  -29.2531  -29.4117  -20.5567 C   0  0  0  0  0  0  0  0  0  0  0  0
  -29.6181  -29.5760  -19.2273 C   0  0  0  0  0  0  0  0  0  0  0  0
  -28.6916  -30.0963  -18.3506 C   0  0  0  0  0  0  0  0  0  0  0  0
  -27.4900  -30.5617  -18.7398 N   0  0  0  0  0  0  0  0  0  0  0  0
  1  2  2  0
  2  3  1  0
  3  4  1  0
  4  5  1  0
  5  6  1  1
  5  7  1  0
  7  8  1  0
  8  9  1  0
  9 10  2  0
 10 11  1  0
 11 12  2  0
  2 13  1  0
 13 14  1  0
 14 15  2  0
 15 16  1  0
 16 17  2  0
 17 18  1  0
 18 19  2  0
 12  8  1  0
 19 14  1  0
M  END
>  <HIPPO Pose ID>  (159) 
99856

>  <fragmenstein_outcome>  (159) 
acceptable

>  <energy_score>  (159) 
-16.787933

>  <distance_score>  (159) 
0.972472

>  <fragmenstein_mode>  (159) 
expansion

>  <HIPPO Compound ID>  (159) 
28722

>  <name>  (159) 
GHVMFOXSUWZPRP-VIFPVBQESA-N

>  <ref_pdb>  (159) 
z0637a

>  <ref_mols>  (159) 
z0211a,z0637a

>  <csv_name>  (159) 
RdRp_knitwork_green_site_rna_tunnel_pure_split4000_batch007.csv

>  <fragmenstein_runtime>  (159) 
6.748275

>  <tags>  (159) 
['Fragmenstein placed']

>  <original ID>  (159) 
GHVMFOXSUWZPRP-VIFPVBQESA-N

>  <fragmenstein_error>  (159) 
None

>  <original SMILES>  (159) 
O=C(NC[C@H](O)Cn1ccnn1)Nc1ccccn1

>  <inchikey>  (159) 
GHVMFOXSUWZPRP-VIFPVBQESA-N

>  <SLURM_JOB_NAME>  (159) 
BulkDock.place:Flavi_NS5_RdRp:RdRp_knitwork_green_site_rna_tunnel_pure_split4000_batch007

>  <scratch_subdir>  (159) 
/opt/xchem-fragalysis-2/maxwin/BulkDock/SCRATCH/217078/C28722-P151

>  <alias>  (159) 
None

>  <SLURM_JOB_ID>  (159) 
217078

>  <exports>  (159) 
['/opt/xchem-fragalysis-2/maxwin/BulkDock/OUTPUTS/RdRp_knitwork_green_site_rna_tunnel_pure_split4000_batch007_217078.sdf']

$$$$
100097
     RDKit          3D

 18 18  0  0  0  0  0  0  0  0999 V2000
  -28.3524  -30.8804  -14.7756 C   0  0  0  0  0  0  0  0  0  0  0  0
  -27.5393  -30.0029  -15.6935 C   0  0  0  0  0  0  0  0  0  0  0  0
  -26.1290  -30.5021  -15.9505 C   0  0  0  0  0  0  0  0  0  0  0  0
  -28.4321  -29.4963  -16.8386 C   0  0  0  0  0  0  0  0  0  0  0  0
  -28.3636  -29.9775  -18.2598 C   0  0  0  0  0  0  0  0  0  0  0  0
  -29.5526  -29.9963  -18.9938 C   0  0  0  0  0  0  0  0  0  0  0  0
  -29.4947  -30.1733  -20.3596 C   0  0  0  0  0  0  0  0  0  0  0  0
  -28.3519  -30.3986  -21.0285 N   0  0  0  0  0  0  0  0  0  0  0  0
  -27.2181  -30.4686  -20.3138 C   0  0  0  0  0  0  0  0  0  0  0  0
  -26.0657  -30.8813  -20.9513 N   0  0  0  0  0  0  0  0  0  0  0  0
  -25.7001  -30.8907  -22.4604 C   0  0  0  0  0  0  0  0  0  0  0  0
  -26.2735  -30.4896  -23.3586 O   0  0  0  0  0  0  0  0  0  0  0  0
  -24.3750  -31.6967  -22.3952 N   0  0  0  0  0  0  0  0  0  0  0  0
  -23.5626  -32.2373  -23.4494 C   0  0  0  0  0  0  0  0  0  0  0  0
  -22.0645  -31.9753  -23.2867 C   0  0  2  0  0  0  0  0  0  0  0  0
  -21.2652  -33.0703  -23.9704 C   0  0  0  0  0  0  0  0  0  0  0  0
  -21.6948  -31.9541  -21.9055 O   0  0  0  0  0  0  0  0  0  0  0  0
  -27.1761  -30.2339  -18.9475 C   0  0  0  0  0  0  0  0  0  0  0  0
  1  2  1  0
  2  3  1  0
  2  4  1  0
  4  5  1  0
  5  6  2  0
  6  7  1  0
  7  8  2  0
  8  9  1  0
  9 10  1  0
 10 11  1  0
 11 12  2  0
 11 13  1  0
 13 14  1  0
 14 15  1  0
 15 16  1  6
 15 17  1  0
  9 18  2  0
 18  5  1  0
M  END
>  <HIPPO Pose ID>  (160) 
100097

>  <fragmenstein_outcome>  (160) 
acceptable

>  <energy_score>  (160) 
-0.185007

>  <distance_score>  (160) 
0.73441

>  <fragmenstein_mode>  (160) 
expansion

>  <HIPPO Compound ID>  (160) 
46078

>  <name>  (160) 
ZRLXVOMEEDTWJD-JTQLQIEISA-N

>  <ref_pdb>  (160) 
z0211a

>  <ref_mols>  (160) 
z0211a,z0215a

>  <csv_name>  (160) 
RdRp_knitwork_green_site_rna_tunnel_pure_split4000_batch012.csv

>  <fragmenstein_runtime>  (160) 
7.934385

>  <tags>  (160) 
['Fragmenstein placed']

>  <original ID>  (160) 
ZRLXVOMEEDTWJD-JTQLQIEISA-N

>  <fragmenstein_error>  (160) 
None

>  <original SMILES>  (160) 
CC(C)Cc1ccnc(NC(=O)NC[C@H](C)O)c1

>  <inchikey>  (160) 
ZRLXVOMEEDTWJD-JTQLQIEISA-N

>  <SLURM_JOB_NAME>  (160) 
BulkDock.place:Flavi_NS5_RdRp:RdRp_knitwork_green_site_rna_tunnel_pure_split4000_batch012

>  <scratch_subdir>  (160) 
/opt/xchem-fragalysis-2/maxwin/BulkDock/SCRATCH/217083/C46078-P102

>  <alias>  (160) 
None

>  <SLURM_JOB_ID>  (160) 
217083

>  <exports>  (160) 
['/opt/xchem-fragalysis-2/maxwin/BulkDock/OUTPUTS/RdRp_knitwork_green_site_rna_tunnel_pure_split4000_batch012_217083.sdf']

$$$$
100103
     RDKit          3D

 18 18  0  0  0  0  0  0  0  0999 V2000
  -28.5169  -30.1169  -14.7484 C   0  0  0  0  0  0  0  0  0  0  0  0
  -28.0382  -29.6836  -16.1237 C   0  0  0  0  0  0  0  0  0  0  0  0
  -26.5196  -29.8383  -16.1646 C   0  0  0  0  0  0  0  0  0  0  0  0
  -28.8103  -30.4785  -17.1756 C   0  0  0  0  0  0  0  0  0  0  0  0
  -28.5762  -30.1435  -18.6308 C   0  0  0  0  0  0  0  0  0  0  0  0
  -29.6732  -29.9045  -19.4570 C   0  0  0  0  0  0  0  0  0  0  0  0
  -29.4745  -29.7378  -20.8168 C   0  0  0  0  0  0  0  0  0  0  0  0
  -28.2786  -29.8606  -21.4175 N   0  0  0  0  0  0  0  0  0  0  0  0
  -27.2353  -30.1806  -20.6420 C   0  0  0  0  0  0  0  0  0  0  0  0
  -26.0810  -30.6425  -21.2504 N   0  0  0  0  0  0  0  0  0  0  0  0
  -25.6663  -30.6498  -22.7515 C   0  0  0  0  0  0  0  0  0  0  0  0
  -26.1909  -30.2082  -23.6632 O   0  0  0  0  0  0  0  0  0  0  0  0
  -24.3831  -31.5222  -22.6559 N   0  0  0  0  0  0  0  0  0  0  0  0
  -23.5614  -32.0901  -23.6948 C   0  0  0  0  0  0  0  0  0  0  0  0
  -22.0556  -31.9890  -23.4279 C   0  0  2  0  0  0  0  0  0  0  0  0
  -21.3248  -33.1814  -24.0090 C   0  0  0  0  0  0  0  0  0  0  0  0
  -21.7954  -31.9363  -22.0184 O   0  0  0  0  0  0  0  0  0  0  0  0
  -27.3284  -30.2702  -19.2541 C   0  0  0  0  0  0  0  0  0  0  0  0
  1  2  1  0
  2  3  1  0
  2  4  1  0
  4  5  1  0
  5  6  2  0
  6  7  1  0
  7  8  2  0
  8  9  1  0
  9 10  1  0
 10 11  1  0
 11 12  2  0
 11 13  1  0
 13 14  1  0
 14 15  1  0
 15 16  1  1
 15 17  1  0
  9 18  2  0
 18  5  1  0
M  END
>  <HIPPO Pose ID>  (161) 
100103

>  <fragmenstein_outcome>  (161) 
acceptable

>  <energy_score>  (161) 
-11.993591

>  <distance_score>  (161) 
0.85287

>  <fragmenstein_mode>  (161) 
expansion

>  <HIPPO Compound ID>  (161) 
46078

>  <name>  (161) 
ZRLXVOMEEDTWJD-JTQLQIEISA-N

>  <ref_pdb>  (161) 
z0215a

>  <ref_mols>  (161) 
z0211a,z0215a

>  <csv_name>  (161) 
RdRp_knitwork_green_site_rna_tunnel_pure_split4000_batch012.csv

>  <fragmenstein_runtime>  (161) 
5.89211

>  <tags>  (161) 
['Fragmenstein placed']

>  <original ID>  (161) 
ZRLXVOMEEDTWJD-JTQLQIEISA-N

>  <fragmenstein_error>  (161) 
None

>  <original SMILES>  (161) 
CC(C)Cc1ccnc(NC(=O)NC[C@H](C)O)c1

>  <inchikey>  (161) 
ZRLXVOMEEDTWJD-JTQLQIEISA-N

>  <SLURM_JOB_NAME>  (161) 
BulkDock.place:Flavi_NS5_RdRp:RdRp_knitwork_green_site_rna_tunnel_pure_split4000_batch012

>  <scratch_subdir>  (161) 
/opt/xchem-fragalysis-2/maxwin/BulkDock/SCRATCH/217083/C46078-P104

>  <alias>  (161) 
None

>  <SLURM_JOB_ID>  (161) 
217083

>  <exports>  (161) 
['/opt/xchem-fragalysis-2/maxwin/BulkDock/OUTPUTS/RdRp_knitwork_green_site_rna_tunnel_pure_split4000_batch012_217083.sdf']

$$$$
100181
     RDKit          3D

 19 19  0  0  0  0  0  0  0  0999 V2000
  -26.5920  -30.0157  -14.8570 C   0  0  0  0  0  0  0  0  0  0  0  0
  -27.8826  -30.7832  -15.1070 C   0  0  0  0  0  0  0  0  0  0  0  0
  -29.0654  -29.8922  -15.5122 C   0  0  0  0  0  0  0  0  0  0  0  0
  -29.7475  -30.1779  -16.8773 C   0  0  0  0  0  0  0  0  0  0  0  0
  -28.8347  -29.9972  -18.0535 C   0  0  0  0  0  0  0  0  0  0  0  0
  -29.1869  -30.0177  -19.3951 C   0  0  0  0  0  0  0  0  0  0  0  0
  -28.1662  -30.1498  -20.3583 C   0  0  0  0  0  0  0  0  0  0  0  0
  -26.8485  -30.3511  -19.9400 C   0  0  0  0  0  0  0  0  0  0  0  0
  -25.8109  -30.7213  -20.7911 N   0  0  0  0  0  0  0  0  0  0  0  0
  -25.7846  -30.8786  -22.3319 C   0  0  0  0  0  0  0  0  0  0  0  0
  -26.5868  -30.6529  -23.1092 O   0  0  0  0  0  0  0  0  0  0  0  0
  -24.3853  -31.5281  -22.4947 N   0  0  0  0  0  0  0  0  0  0  0  0
  -23.7568  -32.1084  -23.6504 C   0  0  0  0  0  0  0  0  0  0  0  0
  -22.2249  -32.1064  -23.4943 C   0  0  2  0  0  0  0  0  0  0  0  0
  -21.5712  -33.1400  -24.3935 C   0  0  0  0  0  0  0  0  0  0  0  0
  -21.8637  -32.3897  -22.1298 O   0  0  0  0  0  0  0  0  0  0  0  0
  -26.5968  -30.2797  -18.5749 C   0  0  0  0  0  0  0  0  0  0  0  0
  -25.3215  -30.5894  -17.8771 C   0  0  0  0  0  0  0  0  0  0  0  0
  -27.5565  -30.0033  -17.6954 N   0  0  0  0  0  0  0  0  0  0  0  0
  1  2  1  0
  2  3  1  0
  3  4  1  0
  4  5  1  0
  5  6  2  0
  6  7  1  0
  7  8  2  0
  8  9  1  0
  9 10  1  0
 10 11  2  0
 10 12  1  0
 12 13  1  0
 13 14  1  0
 14 15  1  6
 14 16  1  0
  8 17  1  0
 17 18  1  0
 17 19  2  0
 19  5  1  0
M  END
>  <HIPPO Pose ID>  (162) 
100181

>  <fragmenstein_outcome>  (162) 
acceptable

>  <energy_score>  (162) 
-0.947744

>  <distance_score>  (162) 
0.982194

>  <fragmenstein_mode>  (162) 
expansion

>  <HIPPO Compound ID>  (162) 
46243

>  <name>  (162) 
PUKKNWUSLMFYEM-JTQLQIEISA-N

>  <ref_pdb>  (162) 
z0215a

>  <ref_mols>  (162) 
z0211a,z0215a

>  <csv_name>  (162) 
RdRp_knitwork_green_site_rna_tunnel_pure_split4000_batch012.csv

>  <fragmenstein_runtime>  (162) 
5.623276

>  <tags>  (162) 
['Fragmenstein placed']

>  <original ID>  (162) 
PUKKNWUSLMFYEM-JTQLQIEISA-N

>  <fragmenstein_error>  (162) 
None

>  <original SMILES>  (162) 
CCCCc1ccc(NC(=O)NC[C@H](C)O)c(C)n1

>  <inchikey>  (162) 
PUKKNWUSLMFYEM-JTQLQIEISA-N

>  <SLURM_JOB_NAME>  (162) 
BulkDock.place:Flavi_NS5_RdRp:RdRp_knitwork_green_site_rna_tunnel_pure_split4000_batch012

>  <scratch_subdir>  (162) 
/opt/xchem-fragalysis-2/maxwin/BulkDock/SCRATCH/217083/C46243-P104

>  <alias>  (162) 
None

>  <SLURM_JOB_ID>  (162) 
217083

>  <exports>  (162) 
['/opt/xchem-fragalysis-2/maxwin/BulkDock/OUTPUTS/RdRp_knitwork_green_site_rna_tunnel_pure_split4000_batch012_217083.sdf']

$$$$
100189
     RDKit          3D

 17 19  0  0  0  0  0  0  0  0999 V2000
  -25.4442  -34.0361  -19.4400 C   0  0  0  0  0  0  0  0  0  0  0  0
  -24.5349  -32.9953  -19.3978 C   0  0  0  0  0  0  0  0  0  0  0  0
  -24.9622  -31.7258  -19.7688 C   0  0  0  0  0  0  0  0  0  0  0  0
  -26.2818  -31.5051  -20.1666 C   0  0  0  0  0  0  0  0  0  0  0  0
  -26.7004  -30.1918  -20.4226 N   0  0  0  0  0  0  0  0  0  0  0  0
  -27.8539  -30.0365  -21.3114 C   0  0  0  0  0  0  0  0  0  0  0  0
  -29.0834  -29.4146  -20.6577 C   0  0  0  0  0  0  0  0  0  0  0  0
  -29.6034  -30.2204  -19.6067 O   0  0  0  0  0  0  0  0  0  0  0  0
  -28.9827  -30.1033  -18.3928 C   0  0  0  0  0  0  0  0  0  0  0  0
  -29.8033  -30.4762  -17.3194 C   0  0  0  0  0  0  0  0  0  0  0  0
  -29.3564  -30.4005  -16.0032 C   0  0  0  0  0  0  0  0  0  0  0  0
  -28.0696  -29.9515  -15.7478 C   0  0  0  0  0  0  0  0  0  0  0  0
  -27.2350  -29.6032  -16.8118 C   0  0  0  0  0  0  0  0  0  0  0  0
  -27.6639  -29.6940  -18.1540 C   0  0  0  0  0  0  0  0  0  0  0  0
  -26.6659  -29.3218  -19.2375 C   0  0  0  0  0  0  0  0  0  0  0  0
  -27.1382  -32.5375  -20.2860 N   0  0  0  0  0  0  0  0  0  0  0  0
  -26.7196  -33.7623  -19.8989 C   0  0  0  0  0  0  0  0  0  0  0  0
  1  2  2  0
  2  3  1  0
  3  4  2  0
  4  5  1  0
  5  6  1  0
  6  7  1  0
  7  8  1  0
  8  9  1  0
  9 10  2  0
 10 11  1  0
 11 12  2  0
 12 13  1  0
 13 14  2  0
 14 15  1  0
  4 16  1  0
 16 17  2  0
 17  1  1  0
 15  5  1  0
 14  9  1  0
M  END
>  <HIPPO Pose ID>  (163) 
100189

>  <fragmenstein_outcome>  (163) 
acceptable

>  <energy_score>  (163) 
-21.454072

>  <distance_score>  (163) 
0.999442

>  <fragmenstein_mode>  (163) 
expansion

>  <HIPPO Compound ID>  (163) 
32376

>  <name>  (163) 
ZLBFYANSAYZPQU-UHFFFAOYSA-N

>  <ref_pdb>  (163) 
z0581a

>  <ref_mols>  (163) 
d0472b,z0581a

>  <csv_name>  (163) 
RdRp_knitwork_green_site_rna_tunnel_pure_split4000_batch011.csv

>  <fragmenstein_runtime>  (163) 
2.031196

>  <tags>  (163) 
['Fragmenstein placed']

>  <original ID>  (163) 
ZLBFYANSAYZPQU-UHFFFAOYSA-N

>  <fragmenstein_error>  (163) 
None

>  <original SMILES>  (163) 
c1ccc(N2CCOc3ccccc3C2)nc1

>  <inchikey>  (163) 
ZLBFYANSAYZPQU-UHFFFAOYSA-N

>  <SLURM_JOB_NAME>  (163) 
BulkDock.place:Flavi_NS5_RdRp:RdRp_knitwork_green_site_rna_tunnel_pure_split4000_batch011

>  <scratch_subdir>  (163) 
/opt/xchem-fragalysis-2/maxwin/BulkDock/SCRATCH/217082/C32376-P144

>  <alias>  (163) 
None

>  <SLURM_JOB_ID>  (163) 
217082

>  <exports>  (163) 
['/opt/xchem-fragalysis-2/maxwin/BulkDock/OUTPUTS/RdRp_knitwork_green_site_rna_tunnel_pure_split4000_batch011_217082.sdf']

$$$$
100235
     RDKit          3D

 23 25  0  0  0  0  0  0  0  0999 V2000
  -22.1016  -34.9958  -19.3773 C   0  0  0  0  0  0  0  0  0  0  0  0
  -23.6179  -35.2596  -19.5187 C   0  0  0  0  0  0  0  0  0  0  0  0
  -24.0761  -36.0025  -18.2456 C   0  0  0  0  0  0  0  0  0  0  0  0
  -23.8105  -36.1819  -20.7414 C   0  0  0  0  0  0  0  0  0  0  0  0
  -24.4476  -33.9868  -19.6987 C   0  0  0  0  0  0  0  0  0  0  0  0
  -23.9062  -32.7135  -19.7292 C   0  0  0  0  0  0  0  0  0  0  0  0
  -24.6170  -31.5711  -19.8830 N   0  0  0  0  0  0  0  0  0  0  0  0
  -25.9630  -31.6310  -20.0509 C   0  0  0  0  0  0  0  0  0  0  0  0
  -26.5952  -30.4150  -20.1635 N   0  0  0  0  0  0  0  0  0  0  0  0
  -27.5610  -30.0761  -21.1994 C   0  0  0  0  0  0  0  0  0  0  0  0
  -28.7665  -29.3106  -20.6489 C   0  0  0  0  0  0  0  0  0  0  0  0
  -29.4442  -30.0453  -19.6326 O   0  0  0  0  0  0  0  0  0  0  0  0
  -28.9116  -29.9956  -18.3715 C   0  0  0  0  0  0  0  0  0  0  0  0
  -29.8471  -30.2823  -17.3701 C   0  0  0  0  0  0  0  0  0  0  0  0
  -29.4921  -30.2749  -16.0240 C   0  0  0  0  0  0  0  0  0  0  0  0
  -28.1867  -29.9728  -15.6643 C   0  0  0  0  0  0  0  0  0  0  0  0
  -27.2397  -29.7088  -16.6546 C   0  0  0  0  0  0  0  0  0  0  0  0
  -27.5761  -29.7432  -18.0237 C   0  0  0  0  0  0  0  0  0  0  0  0
  -26.4634  -29.5106  -19.0281 C   0  0  0  0  0  0  0  0  0  0  0  0
  -26.6020  -32.8699  -20.0436 C   0  0  0  0  0  0  0  0  0  0  0  0
  -28.0161  -33.0340  -20.1757 C   0  0  0  0  0  0  0  0  0  0  0  0
  -29.1469  -33.2455  -20.3304 N   0  0  0  0  0  0  0  0  0  0  0  0
  -25.8364  -34.0343  -19.8505 C   0  0  0  0  0  0  0  0  0  0  0  0
  1  2  1  0
  2  3  1  0
  2  4  1  0
  2  5  1  0
  5  6  2  0
  6  7  1  0
  7  8  2  0
  8  9  1  0
  9 10  1  0
 10 11  1  0
 11 12  1  0
 12 13  1  0
 13 14  2  0
 14 15  1  0
 15 16  2  0
 16 17  1  0
 17 18  2  0
 18 19  1  0
  8 20  1  0
 20 21  1  0
 21 22  3  0
 20 23  2  0
 23  5  1  0
 19  9  1  0
 18 13  1  0
M  END
>  <HIPPO Pose ID>  (164) 
100235

>  <fragmenstein_outcome>  (164) 
acceptable

>  <energy_score>  (164) 
-48.589623

>  <distance_score>  (164) 
0.975087

>  <fragmenstein_mode>  (164) 
expansion

>  <HIPPO Compound ID>  (164) 
60288

>  <name>  (164) 
AECMXBBKDZDKPA-UHFFFAOYSA-N

>  <ref_pdb>  (164) 
z0581a

>  <ref_mols>  (164) 
d0472b,z0581a

>  <csv_name>  (164) 
RdRp_knitwork_green_site_rna_tunnel_pure_split4000_batch011.csv

>  <fragmenstein_runtime>  (164) 
3.040473

>  <tags>  (164) 
['Fragmenstein placed']

>  <original ID>  (164) 
AECMXBBKDZDKPA-UHFFFAOYSA-N

>  <fragmenstein_error>  (164) 
None

>  <original SMILES>  (164) 
CC(C)(C)c1cnc(N2CCOc3ccccc3C2)c(C#N)c1

>  <inchikey>  (164) 
AECMXBBKDZDKPA-UHFFFAOYSA-N

>  <SLURM_JOB_NAME>  (164) 
BulkDock.place:Flavi_NS5_RdRp:RdRp_knitwork_green_site_rna_tunnel_pure_split4000_batch011

>  <scratch_subdir>  (164) 
/opt/xchem-fragalysis-2/maxwin/BulkDock/SCRATCH/217082/C60288-P144

>  <alias>  (164) 
None

>  <SLURM_JOB_ID>  (164) 
217082

>  <exports>  (164) 
['/opt/xchem-fragalysis-2/maxwin/BulkDock/OUTPUTS/RdRp_knitwork_green_site_rna_tunnel_pure_split4000_batch011_217082.sdf']

$$$$
100326
     RDKit          3D

 17 17  0  0  0  0  0  0  0  0999 V2000
  -31.3436  -30.2125  -20.1061 C   0  0  0  0  0  0  0  0  0  0  0  0
  -30.1390  -29.7077  -20.6420 O   0  0  0  0  0  0  0  0  0  0  0  0
  -29.0806  -29.8525  -19.8011 C   0  0  0  0  0  0  0  0  0  0  0  0
  -29.0758  -29.7203  -18.4218 C   0  0  0  0  0  0  0  0  0  0  0  0
  -27.9670  -29.8252  -17.6549 N   0  0  0  0  0  0  0  0  0  0  0  0
  -26.8186  -30.1542  -18.2946 C   0  0  0  0  0  0  0  0  0  0  0  0
  -25.7569  -30.3637  -17.5031 F   0  0  0  0  0  0  0  0  0  0  0  0
  -26.7283  -30.3428  -19.6699 C   0  0  0  0  0  0  0  0  0  0  0  0
  -25.6019  -30.7822  -20.3608 N   0  0  0  0  0  0  0  0  0  0  0  0
  -25.3822  -31.0161  -21.8885 C   0  0  0  0  0  0  0  0  0  0  0  0
  -26.0699  -30.8060  -22.7688 O   0  0  0  0  0  0  0  0  0  0  0  0
  -24.0039  -31.7075  -21.8440 N   0  0  0  0  0  0  0  0  0  0  0  0
  -23.1717  -32.1887  -22.9078 C   0  0  0  0  0  0  0  0  0  0  0  0
  -21.7291  -32.4417  -22.5155 C   0  0  1  0  0  0  0  0  0  0  0  0
  -20.9494  -32.9184  -23.7267 C   0  0  0  0  0  0  0  0  0  0  0  0
  -21.1152  -31.2639  -22.0069 O   0  0  0  0  0  0  0  0  0  0  0  0
  -27.8833  -30.1359  -20.4215 C   0  0  0  0  0  0  0  0  0  0  0  0
  1  2  1  0
  2  3  1  0
  3  4  2  0
  4  5  1  0
  5  6  2  0
  6  7  1  0
  6  8  1  0
  8  9  1  0
  9 10  1  0
 10 11  2  0
 10 12  1  0
 12 13  1  0
 13 14  1  0
 14 15  1  6
 14 16  1  0
  8 17  2  0
 17  3  1  0
M  END
>  <HIPPO Pose ID>  (165) 
100326

>  <fragmenstein_outcome>  (165) 
acceptable

>  <energy_score>  (165) 
-14.542812

>  <distance_score>  (165) 
0.725779

>  <fragmenstein_mode>  (165) 
expansion

>  <HIPPO Compound ID>  (165) 
46520

>  <name>  (165) 
ZJUVOQYBFSXHNE-ZCFIWIBFSA-N

>  <ref_pdb>  (165) 
z0211a

>  <ref_mols>  (165) 
z0211a,z0215a

>  <csv_name>  (165) 
RdRp_knitwork_green_site_rna_tunnel_pure_split4000_batch012.csv

>  <fragmenstein_runtime>  (165) 
4.139332

>  <tags>  (165) 
['Fragmenstein placed']

>  <original ID>  (165) 
ZJUVOQYBFSXHNE-ZCFIWIBFSA-N

>  <fragmenstein_error>  (165) 
None

>  <original SMILES>  (165) 
COc1cnc(F)c(NC(=O)NC[C@@H](C)O)c1

>  <inchikey>  (165) 
ZJUVOQYBFSXHNE-ZCFIWIBFSA-N

>  <SLURM_JOB_NAME>  (165) 
BulkDock.place:Flavi_NS5_RdRp:RdRp_knitwork_green_site_rna_tunnel_pure_split4000_batch012

>  <scratch_subdir>  (165) 
/opt/xchem-fragalysis-2/maxwin/BulkDock/SCRATCH/217083/C46520-P102

>  <alias>  (165) 
None

>  <SLURM_JOB_ID>  (165) 
217083

>  <exports>  (165) 
['/opt/xchem-fragalysis-2/maxwin/BulkDock/OUTPUTS/RdRp_knitwork_green_site_rna_tunnel_pure_split4000_batch012_217083.sdf']

$$$$
100338
     RDKit          3D

 18 20  0  0  0  0  0  0  0  0999 V2000
  -23.9835  -31.0529  -19.9582 F   0  0  0  0  0  0  0  0  0  0  0  0
  -24.9706  -31.9504  -19.8642 C   0  0  0  0  0  0  0  0  0  0  0  0
  -24.6449  -33.2386  -19.4667 C   0  0  0  0  0  0  0  0  0  0  0  0
  -25.6532  -34.1843  -19.4047 C   0  0  0  0  0  0  0  0  0  0  0  0
  -26.9257  -33.8027  -19.7939 C   0  0  0  0  0  0  0  0  0  0  0  0
  -27.2522  -32.5559  -20.2031 N   0  0  0  0  0  0  0  0  0  0  0  0
  -26.2922  -31.6050  -20.1827 C   0  0  0  0  0  0  0  0  0  0  0  0
  -26.6294  -30.2655  -20.4382 N   0  0  0  0  0  0  0  0  0  0  0  0
  -27.7723  -30.0347  -21.3236 C   0  0  0  0  0  0  0  0  0  0  0  0
  -28.9602  -29.3385  -20.6691 C   0  0  0  0  0  0  0  0  0  0  0  0
  -29.5361  -30.1249  -19.6333 O   0  0  0  0  0  0  0  0  0  0  0  0
  -28.9171  -30.0559  -18.4150 C   0  0  0  0  0  0  0  0  0  0  0  0
  -29.7712  -30.3801  -17.3512 C   0  0  0  0  0  0  0  0  0  0  0  0
  -29.3310  -30.3428  -16.0314 C   0  0  0  0  0  0  0  0  0  0  0  0
  -28.0201  -29.9785  -15.7637 C   0  0  0  0  0  0  0  0  0  0  0  0
  -27.1554  -29.6774  -16.8188 C   0  0  0  0  0  0  0  0  0  0  0  0
  -27.5752  -29.7341  -18.1655 C   0  0  0  0  0  0  0  0  0  0  0  0
  -26.5420  -29.4182  -19.2386 C   0  0  0  0  0  0  0  0  0  0  0  0
  1  2  1  0
  2  3  2  0
  3  4  1  0
  4  5  2  0
  5  6  1  0
  6  7  2  0
  7  8  1  0
  8  9  1  0
  9 10  1  0
 10 11  1  0
 11 12  1  0
 12 13  2  0
 13 14  1  0
 14 15  2  0
 15 16  1  0
 16 17  2  0
 17 18  1  0
  7  2  1  0
 18  8  1  0
 17 12  1  0
M  END
>  <HIPPO Pose ID>  (166) 
100338

>  <fragmenstein_outcome>  (166) 
acceptable

>  <energy_score>  (166) 
-20.501074

>  <distance_score>  (166) 
0.854736

>  <fragmenstein_mode>  (166) 
expansion

>  <HIPPO Compound ID>  (166) 
62405

>  <name>  (166) 
ZXBMFNVGEOSULK-UHFFFAOYSA-N

>  <ref_pdb>  (166) 
z0581a

>  <ref_mols>  (166) 
d0472b,z0581a

>  <csv_name>  (166) 
RdRp_knitwork_green_site_rna_tunnel_pure_split4000_batch011.csv

>  <fragmenstein_runtime>  (166) 
1.776862

>  <tags>  (166) 
['Fragmenstein placed']

>  <original ID>  (166) 
ZXBMFNVGEOSULK-UHFFFAOYSA-N

>  <fragmenstein_error>  (166) 
None

>  <original SMILES>  (166) 
Fc1cccnc1N1CCOc2ccccc2C1

>  <inchikey>  (166) 
ZXBMFNVGEOSULK-UHFFFAOYSA-N

>  <SLURM_JOB_NAME>  (166) 
BulkDock.place:Flavi_NS5_RdRp:RdRp_knitwork_green_site_rna_tunnel_pure_split4000_batch011

>  <scratch_subdir>  (166) 
/opt/xchem-fragalysis-2/maxwin/BulkDock/SCRATCH/217082/C62405-P144

>  <alias>  (166) 
None

>  <SLURM_JOB_ID>  (166) 
217082

>  <exports>  (166) 
['/opt/xchem-fragalysis-2/maxwin/BulkDock/OUTPUTS/RdRp_knitwork_green_site_rna_tunnel_pure_split4000_batch011_217082.sdf']

$$$$
100340
     RDKit          3D

 17 17  0  0  0  0  0  0  0  0999 V2000
  -31.3195  -30.1919  -20.2815 C   0  0  0  0  0  0  0  0  0  0  0  0
  -30.0429  -29.7960  -20.7413 O   0  0  0  0  0  0  0  0  0  0  0  0
  -29.0460  -29.9329  -19.8269 C   0  0  0  0  0  0  0  0  0  0  0  0
  -29.1552  -29.8291  -18.4458 C   0  0  0  0  0  0  0  0  0  0  0  0
  -28.1136  -29.9134  -17.5901 N   0  0  0  0  0  0  0  0  0  0  0  0
  -26.9151  -30.2107  -18.1380 C   0  0  0  0  0  0  0  0  0  0  0  0
  -25.9100  -30.3971  -17.2692 F   0  0  0  0  0  0  0  0  0  0  0  0
  -26.7134  -30.4141  -19.5061 C   0  0  0  0  0  0  0  0  0  0  0  0
  -25.5185  -30.8913  -20.0452 N   0  0  0  0  0  0  0  0  0  0  0  0
  -25.1553  -31.2765  -21.5165 C   0  0  0  0  0  0  0  0  0  0  0  0
  -25.8102  -31.3212  -22.4479 O   0  0  0  0  0  0  0  0  0  0  0  0
  -23.6288  -31.4791  -21.3567 N   0  0  0  0  0  0  0  0  0  0  0  0
  -22.6056  -31.6846  -22.3505 C   0  0  0  0  0  0  0  0  0  0  0  0
  -22.3299  -33.1325  -22.6691 C   0  0  1  0  0  0  0  0  0  0  0  0
  -21.6573  -33.2596  -24.0288 C   0  0  0  0  0  0  0  0  0  0  0  0
  -21.4641  -33.6289  -21.6493 O   0  0  0  0  0  0  0  0  0  0  0  0
  -27.7956  -30.1999  -20.3580 C   0  0  0  0  0  0  0  0  0  0  0  0
  1  2  1  0
  2  3  1  0
  3  4  2  0
  4  5  1  0
  5  6  2  0
  6  7  1  0
  6  8  1  0
  8  9  1  0
  9 10  1  0
 10 11  2  0
 10 12  1  0
 12 13  1  0
 13 14  1  0
 14 15  1  6
 14 16  1  0
  8 17  2  0
 17  3  1  0
M  END
>  <HIPPO Pose ID>  (167) 
100340

>  <fragmenstein_outcome>  (167) 
acceptable

>  <energy_score>  (167) 
-16.322631

>  <distance_score>  (167) 
0.899465

>  <fragmenstein_mode>  (167) 
expansion

>  <HIPPO Compound ID>  (167) 
46520

>  <name>  (167) 
ZJUVOQYBFSXHNE-ZCFIWIBFSA-N

>  <ref_pdb>  (167) 
z0215a

>  <ref_mols>  (167) 
z0211a,z0215a

>  <csv_name>  (167) 
RdRp_knitwork_green_site_rna_tunnel_pure_split4000_batch012.csv

>  <fragmenstein_runtime>  (167) 
4.456556

>  <tags>  (167) 
['Fragmenstein placed']

>  <original ID>  (167) 
ZJUVOQYBFSXHNE-ZCFIWIBFSA-N

>  <fragmenstein_error>  (167) 
None

>  <original SMILES>  (167) 
COc1cnc(F)c(NC(=O)NC[C@@H](C)O)c1

>  <inchikey>  (167) 
ZJUVOQYBFSXHNE-ZCFIWIBFSA-N

>  <SLURM_JOB_NAME>  (167) 
BulkDock.place:Flavi_NS5_RdRp:RdRp_knitwork_green_site_rna_tunnel_pure_split4000_batch012

>  <scratch_subdir>  (167) 
/opt/xchem-fragalysis-2/maxwin/BulkDock/SCRATCH/217083/C46520-P104

>  <alias>  (167) 
None

>  <SLURM_JOB_ID>  (167) 
217083

>  <exports>  (167) 
['/opt/xchem-fragalysis-2/maxwin/BulkDock/OUTPUTS/RdRp_knitwork_green_site_rna_tunnel_pure_split4000_batch012_217083.sdf']

$$$$
100356
     RDKit          3D

 18 20  0  0  0  0  0  0  0  0999 V2000
  -25.0732  -35.2580  -19.1033 F   0  0  0  0  0  0  0  0  0  0  0  0
  -25.4397  -34.0198  -19.4557 C   0  0  0  0  0  0  0  0  0  0  0  0
  -24.5343  -32.9817  -19.3960 C   0  0  0  0  0  0  0  0  0  0  0  0
  -24.9699  -31.7130  -19.7625 C   0  0  0  0  0  0  0  0  0  0  0  0
  -26.2908  -31.4982  -20.1693 C   0  0  0  0  0  0  0  0  0  0  0  0
  -26.7126  -30.1871  -20.4228 N   0  0  0  0  0  0  0  0  0  0  0  0
  -27.8651  -30.0290  -21.3132 C   0  0  0  0  0  0  0  0  0  0  0  0
  -29.1027  -29.4314  -20.6521 C   0  0  0  0  0  0  0  0  0  0  0  0
  -29.6038  -30.2513  -19.6027 O   0  0  0  0  0  0  0  0  0  0  0  0
  -28.9850  -30.1213  -18.3890 C   0  0  0  0  0  0  0  0  0  0  0  0
  -29.7988  -30.5032  -17.3139 C   0  0  0  0  0  0  0  0  0  0  0  0
  -29.3511  -30.4169  -15.9986 C   0  0  0  0  0  0  0  0  0  0  0  0
  -28.0705  -29.9488  -15.7462 C   0  0  0  0  0  0  0  0  0  0  0  0
  -27.2419  -29.5922  -16.8121 C   0  0  0  0  0  0  0  0  0  0  0  0
  -27.6713  -29.6934  -18.1531 C   0  0  0  0  0  0  0  0  0  0  0  0
  -26.6802  -29.3129  -19.2399 C   0  0  0  0  0  0  0  0  0  0  0  0
  -27.1429  -32.5354  -20.3010 N   0  0  0  0  0  0  0  0  0  0  0  0
  -26.7148  -33.7622  -19.9177 C   0  0  0  0  0  0  0  0  0  0  0  0
  1  2  1  0
  2  3  2  0
  3  4  1  0
  4  5  2  0
  5  6  1  0
  6  7  1  0
  7  8  1  0
  8  9  1  0
  9 10  1  0
 10 11  2  0
 11 12  1  0
 12 13  2  0
 13 14  1  0
 14 15  2  0
 15 16  1  0
  5 17  1  0
 17 18  2  0
 18  2  1  0
 16  6  1  0
 15 10  1  0
M  END
>  <HIPPO Pose ID>  (168) 
100356

>  <fragmenstein_outcome>  (168) 
acceptable

>  <energy_score>  (168) 
-20.871409

>  <distance_score>  (168) 
0.998661

>  <fragmenstein_mode>  (168) 
expansion

>  <HIPPO Compound ID>  (168) 
62406

>  <name>  (168) 
JWISAZGMKAFUHA-UHFFFAOYSA-N

>  <ref_pdb>  (168) 
z0581a

>  <ref_mols>  (168) 
d0472b,z0581a

>  <csv_name>  (168) 
RdRp_knitwork_green_site_rna_tunnel_pure_split4000_batch011.csv

>  <fragmenstein_runtime>  (168) 
2.819678

>  <tags>  (168) 
['Fragmenstein placed']

>  <original ID>  (168) 
JWISAZGMKAFUHA-UHFFFAOYSA-N

>  <fragmenstein_error>  (168) 
None

>  <original SMILES>  (168) 
Fc1ccc(N2CCOc3ccccc3C2)nc1

>  <inchikey>  (168) 
JWISAZGMKAFUHA-UHFFFAOYSA-N

>  <SLURM_JOB_NAME>  (168) 
BulkDock.place:Flavi_NS5_RdRp:RdRp_knitwork_green_site_rna_tunnel_pure_split4000_batch011

>  <scratch_subdir>  (168) 
/opt/xchem-fragalysis-2/maxwin/BulkDock/SCRATCH/217082/C62406-P144

>  <alias>  (168) 
None

>  <SLURM_JOB_ID>  (168) 
217082

>  <exports>  (168) 
['/opt/xchem-fragalysis-2/maxwin/BulkDock/OUTPUTS/RdRp_knitwork_green_site_rna_tunnel_pure_split4000_batch011_217082.sdf']

$$$$
100357
     RDKit          3D

 17 17  0  0  0  0  0  0  0  0999 V2000
  -30.4173  -30.2087  -20.1282 C   0  0  0  0  0  0  0  0  0  0  0  0
  -29.0245  -30.0544  -19.5953 C   0  0  0  0  0  0  0  0  0  0  0  0
  -27.9384  -30.2330  -20.4585 C   0  0  0  0  0  0  0  0  0  0  0  0
  -26.6547  -30.2744  -19.9247 C   0  0  0  0  0  0  0  0  0  0  0  0
  -25.5911  -30.7123  -20.6697 N   0  0  0  0  0  0  0  0  0  0  0  0
  -25.4541  -30.9160  -22.1968 C   0  0  0  0  0  0  0  0  0  0  0  0
  -26.1798  -30.6755  -23.0375 O   0  0  0  0  0  0  0  0  0  0  0  0
  -24.0874  -31.6338  -22.2333 N   0  0  0  0  0  0  0  0  0  0  0  0
  -23.4049  -32.2753  -23.3176 C   0  0  0  0  0  0  0  0  0  0  0  0
  -21.9014  -32.0128  -23.3175 C   0  0  2  0  0  0  0  0  0  0  0  0
  -21.2060  -33.0764  -24.1432 C   0  0  0  0  0  0  0  0  0  0  0  0
  -21.3781  -32.0662  -21.9881 O   0  0  0  0  0  0  0  0  0  0  0  0
  -26.3754  -30.0330  -18.6346 N   0  0  0  0  0  0  0  0  0  0  0  0
  -27.4243  -29.8240  -17.8220 C   0  0  0  0  0  0  0  0  0  0  0  0
  -28.7463  -29.8814  -18.2375 C   0  0  0  0  0  0  0  0  0  0  0  0
  -29.7238  -29.9142  -17.2093 C   0  0  0  0  0  0  0  0  0  0  0  0
  -30.4252  -30.0053  -16.2941 N   0  0  0  0  0  0  0  0  0  0  0  0
  1  2  1  0
  2  3  2  0
  3  4  1  0
  4  5  1  0
  5  6  1  0
  6  7  2  0
  6  8  1  0
  8  9  1  0
  9 10  1  0
 10 11  1  6
 10 12  1  0
  4 13  2  0
 13 14  1  0
 14 15  2  0
 15 16  1  0
 16 17  3  0
 15  2  1  0
M  END
>  <HIPPO Pose ID>  (169) 
100357

>  <fragmenstein_outcome>  (169) 
acceptable

>  <energy_score>  (169) 
-20.774211

>  <distance_score>  (169) 
0.842034

>  <fragmenstein_mode>  (169) 
expansion

>  <HIPPO Compound ID>  (169) 
46310

>  <name>  (169) 
BGMUFSVKJQXEHU-QMMMGPOBSA-N

>  <ref_pdb>  (169) 
z0211a

>  <ref_mols>  (169) 
z0211a,z0221a

>  <csv_name>  (169) 
RdRp_knitwork_green_site_rna_tunnel_pure_split4000_batch007.csv

>  <fragmenstein_runtime>  (169) 
3.708499

>  <tags>  (169) 
['Fragmenstein placed']

>  <original ID>  (169) 
BGMUFSVKJQXEHU-QMMMGPOBSA-N

>  <fragmenstein_error>  (169) 
None

>  <original SMILES>  (169) 
Cc1cc(NC(=O)NC[C@H](C)O)ncc1C#N

>  <inchikey>  (169) 
BGMUFSVKJQXEHU-QMMMGPOBSA-N

>  <SLURM_JOB_NAME>  (169) 
BulkDock.place:Flavi_NS5_RdRp:RdRp_knitwork_green_site_rna_tunnel_pure_split4000_batch007

>  <scratch_subdir>  (169) 
/opt/xchem-fragalysis-2/maxwin/BulkDock/SCRATCH/217078/C46310-P102

>  <alias>  (169) 
None

>  <SLURM_JOB_ID>  (169) 
217078

>  <exports>  (169) 
['/opt/xchem-fragalysis-2/maxwin/BulkDock/OUTPUTS/RdRp_knitwork_green_site_rna_tunnel_pure_split4000_batch007_217078.sdf']

$$$$
100379
     RDKit          3D

 17 17  0  0  0  0  0  0  0  0999 V2000
  -21.1512  -32.9329  -23.8895 C   0  0  0  0  0  0  0  0  0  0  0  0
  -21.9319  -32.5169  -22.6565 C   0  0  1  0  0  0  0  0  0  0  0  0
  -21.3101  -31.3685  -22.0861 O   0  0  0  0  0  0  0  0  0  0  0  0
  -23.3890  -32.2419  -23.0071 C   0  0  0  0  0  0  0  0  0  0  0  0
  -24.1391  -31.7497  -21.8866 N   0  0  0  0  0  0  0  0  0  0  0  0
  -25.6283  -31.9485  -21.5120 C   0  0  0  0  0  0  0  0  0  0  0  0
  -26.4296  -32.5884  -22.0026 O   0  0  0  0  0  0  0  0  0  0  0  0
  -25.7304  -30.9444  -20.3389 N   0  0  0  0  0  0  0  0  0  0  0  0
  -26.8316  -30.4947  -19.6425 C   0  0  0  0  0  0  0  0  0  0  0  0
  -28.0474  -30.7134  -20.2024 N   0  0  0  0  0  0  0  0  0  0  0  0
  -29.1434  -30.4327  -19.4712 C   0  0  0  0  0  0  0  0  0  0  0  0
  -29.0560  -29.9344  -18.1905 C   0  0  0  0  0  0  0  0  0  0  0  0
  -30.1264  -29.9817  -17.2756 C   0  0  0  0  0  0  0  0  0  0  0  0
  -30.8501  -30.0843  -16.3818 N   0  0  0  0  0  0  0  0  0  0  0  0
  -27.8179  -29.5936  -17.6730 C   0  0  0  0  0  0  0  0  0  0  0  0
  -26.6852  -29.8840  -18.4054 C   0  0  0  0  0  0  0  0  0  0  0  0
  -25.0527  -29.6052  -17.5350 Br  0  0  0  0  0  0  0  0  0  0  0  0
  2  1  1  6
  2  3  1  0
  2  4  1  0
  4  5  1  0
  5  6  1  0
  6  7  2  0
  6  8  1  0
  8  9  1  0
  9 10  2  0
 10 11  1  0
 11 12  2  0
 12 13  1  0
 13 14  3  0
 12 15  1  0
 15 16  2  0
 16 17  1  0
 16  9  1  0
M  END
>  <HIPPO Pose ID>  (170) 
100379

>  <fragmenstein_outcome>  (170) 
acceptable

>  <energy_score>  (170) 
-2.627243

>  <distance_score>  (170) 
0.955012

>  <fragmenstein_mode>  (170) 
expansion

>  <HIPPO Compound ID>  (170) 
46322

>  <name>  (170) 
DBJUVUAOAUKVJM-ZCFIWIBFSA-N

>  <ref_pdb>  (170) 
z0211a

>  <ref_mols>  (170) 
z0211a,z0221a

>  <csv_name>  (170) 
RdRp_knitwork_green_site_rna_tunnel_pure_split4000_batch007.csv

>  <fragmenstein_runtime>  (170) 
4.394293

>  <tags>  (170) 
['Fragmenstein placed']

>  <original ID>  (170) 
DBJUVUAOAUKVJM-ZCFIWIBFSA-N

>  <fragmenstein_error>  (170) 
None

>  <original SMILES>  (170) 
C[C@@H](O)CNC(=O)Nc1ncc(C#N)cc1Br

>  <inchikey>  (170) 
DBJUVUAOAUKVJM-ZCFIWIBFSA-N

>  <SLURM_JOB_NAME>  (170) 
BulkDock.place:Flavi_NS5_RdRp:RdRp_knitwork_green_site_rna_tunnel_pure_split4000_batch007

>  <scratch_subdir>  (170) 
/opt/xchem-fragalysis-2/maxwin/BulkDock/SCRATCH/217078/C46322-P102

>  <alias>  (170) 
None

>  <SLURM_JOB_ID>  (170) 
217078

>  <exports>  (170) 
['/opt/xchem-fragalysis-2/maxwin/BulkDock/OUTPUTS/RdRp_knitwork_green_site_rna_tunnel_pure_split4000_batch007_217078.sdf']

$$$$
100392
     RDKit          3D

 17 17  0  0  0  0  0  0  0  0999 V2000
  -30.7546  -30.3928  -20.1241 C   0  0  0  0  0  0  0  0  0  0  0  0
  -29.4692  -30.1539  -19.4051 C   0  0  0  0  0  0  0  0  0  0  0  0
  -29.4772  -29.8274  -18.0621 C   0  0  0  0  0  0  0  0  0  0  0  0
  -28.2627  -29.6024  -17.4360 C   0  0  0  0  0  0  0  0  0  0  0  0
  -27.0699  -29.7717  -18.1483 C   0  0  0  0  0  0  0  0  0  0  0  0
  -25.8573  -29.4292  -17.4957 C   0  0  0  0  0  0  0  0  0  0  0  0
  -24.9274  -29.0708  -16.9072 N   0  0  0  0  0  0  0  0  0  0  0  0
  -27.1355  -30.1936  -19.4660 C   0  0  0  0  0  0  0  0  0  0  0  0
  -26.0193  -30.5479  -20.2173 N   0  0  0  0  0  0  0  0  0  0  0  0
  -25.8846  -30.8543  -21.7372 C   0  0  0  0  0  0  0  0  0  0  0  0
  -26.6539  -30.7810  -22.5718 O   0  0  0  0  0  0  0  0  0  0  0  0
  -24.4238  -31.3867  -21.7628 N   0  0  0  0  0  0  0  0  0  0  0  0
  -23.6146  -31.8433  -22.8688 C   0  0  0  0  0  0  0  0  0  0  0  0
  -22.2344  -32.3631  -22.4707 C   0  0  1  0  0  0  0  0  0  0  0  0
  -21.4637  -32.8813  -23.6760 C   0  0  0  0  0  0  0  0  0  0  0  0
  -21.4634  -31.3352  -21.8573 O   0  0  0  0  0  0  0  0  0  0  0  0
  -28.3228  -30.3470  -20.0931 N   0  0  0  0  0  0  0  0  0  0  0  0
  1  2  1  0
  2  3  2  0
  3  4  1  0
  4  5  2  0
  5  6  1  0
  6  7  3  0
  5  8  1  0
  8  9  1  0
  9 10  1  0
 10 11  2  0
 10 12  1  0
 12 13  1  0
 13 14  1  0
 14 15  1  6
 14 16  1  0
  8 17  2  0
 17  2  1  0
M  END
>  <HIPPO Pose ID>  (171) 
100392

>  <fragmenstein_outcome>  (171) 
acceptable

>  <energy_score>  (171) 
-7.016079

>  <distance_score>  (171) 
0.662322

>  <fragmenstein_mode>  (171) 
expansion

>  <HIPPO Compound ID>  (171) 
46345

>  <name>  (171) 
IZPLABZDEJOLGZ-MRVPVSSYSA-N

>  <ref_pdb>  (171) 
z0211a

>  <ref_mols>  (171) 
z0211a,z0221a

>  <csv_name>  (171) 
RdRp_knitwork_green_site_rna_tunnel_pure_split4000_batch007.csv

>  <fragmenstein_runtime>  (171) 
4.993558

>  <tags>  (171) 
['Fragmenstein placed']

>  <original ID>  (171) 
IZPLABZDEJOLGZ-MRVPVSSYSA-N

>  <fragmenstein_error>  (171) 
None

>  <original SMILES>  (171) 
Cc1ccc(C#N)c(NC(=O)NC[C@@H](C)O)n1

>  <inchikey>  (171) 
IZPLABZDEJOLGZ-MRVPVSSYSA-N

>  <SLURM_JOB_NAME>  (171) 
BulkDock.place:Flavi_NS5_RdRp:RdRp_knitwork_green_site_rna_tunnel_pure_split4000_batch007

>  <scratch_subdir>  (171) 
/opt/xchem-fragalysis-2/maxwin/BulkDock/SCRATCH/217078/C46345-P102

>  <alias>  (171) 
None

>  <SLURM_JOB_ID>  (171) 
217078

>  <exports>  (171) 
['/opt/xchem-fragalysis-2/maxwin/BulkDock/OUTPUTS/RdRp_knitwork_green_site_rna_tunnel_pure_split4000_batch007_217078.sdf']

$$$$
100414
     RDKit          3D

 15 15  0  0  0  0  0  0  0  0999 V2000
  -21.2655  -32.8589  -23.4920 C   0  0  0  0  0  0  0  0  0  0  0  0
  -22.1707  -32.5219  -22.3168 C   0  0  1  0  0  0  0  0  0  0  0  0
  -21.4707  -31.6638  -21.4203 O   0  0  0  0  0  0  0  0  0  0  0  0
  -23.4521  -31.8430  -22.7904 C   0  0  0  0  0  0  0  0  0  0  0  0
  -24.3282  -31.4223  -21.7218 N   0  0  0  0  0  0  0  0  0  0  0  0
  -25.7806  -30.8814  -21.7687 C   0  0  0  0  0  0  0  0  0  0  0  0
  -26.4953  -30.7702  -22.6475 O   0  0  0  0  0  0  0  0  0  0  0  0
  -26.0111  -30.6307  -20.2447 N   0  0  0  0  0  0  0  0  0  0  0  0
  -27.1776  -30.2942  -19.5492 C   0  0  0  0  0  0  0  0  0  0  0  0
  -28.3842  -30.2894  -20.2590 C   0  0  0  0  0  0  0  0  0  0  0  0
  -29.5900  -30.0913  -19.6012 C   0  0  0  0  0  0  0  0  0  0  0  0
  -29.5504  -29.8584  -18.2426 C   0  0  0  0  0  0  0  0  0  0  0  0
  -28.4109  -29.7731  -17.5281 N   0  0  0  0  0  0  0  0  0  0  0  0
  -27.2457  -30.0096  -18.1863 C   0  0  0  0  0  0  0  0  0  0  0  0
  -25.7045  -30.0047  -17.0788 Br  0  0  0  0  0  0  0  0  0  0  0  0
  2  1  1  6
  2  3  1  0
  2  4  1  0
  4  5  1  0
  5  6  1  0
  6  7  2  0
  6  8  1  0
  8  9  1  0
  9 10  2  0
 10 11  1  0
 11 12  2  0
 12 13  1  0
 13 14  2  0
 14 15  1  0
 14  9  1  0
M  END
>  <HIPPO Pose ID>  (172) 
100414

>  <fragmenstein_outcome>  (172) 
acceptable

>  <energy_score>  (172) 
-13.579591

>  <distance_score>  (172) 
0.820088

>  <fragmenstein_mode>  (172) 
expansion

>  <HIPPO Compound ID>  (172) 
46750

>  <name>  (172) 
VKOLUPGBVICVDG-ZCFIWIBFSA-N

>  <ref_pdb>  (172) 
z0211a

>  <ref_mols>  (172) 
z0211a,z0215a

>  <csv_name>  (172) 
RdRp_knitwork_green_site_rna_tunnel_pure_split4000_batch012.csv

>  <fragmenstein_runtime>  (172) 
2.231176

>  <tags>  (172) 
['Fragmenstein placed']

>  <original ID>  (172) 
VKOLUPGBVICVDG-ZCFIWIBFSA-N

>  <fragmenstein_error>  (172) 
None

>  <original SMILES>  (172) 
C[C@@H](O)CNC(=O)Nc1cccnc1Br

>  <inchikey>  (172) 
VKOLUPGBVICVDG-ZCFIWIBFSA-N

>  <SLURM_JOB_NAME>  (172) 
BulkDock.place:Flavi_NS5_RdRp:RdRp_knitwork_green_site_rna_tunnel_pure_split4000_batch012

>  <scratch_subdir>  (172) 
/opt/xchem-fragalysis-2/maxwin/BulkDock/SCRATCH/217083/C46750-P102

>  <alias>  (172) 
None

>  <SLURM_JOB_ID>  (172) 
217083

>  <exports>  (172) 
['/opt/xchem-fragalysis-2/maxwin/BulkDock/OUTPUTS/RdRp_knitwork_green_site_rna_tunnel_pure_split4000_batch012_217083.sdf']

$$$$
100418
     RDKit          3D

 15 15  0  0  0  0  0  0  0  0999 V2000
  -21.3842  -32.8369  -23.6592 C   0  0  0  0  0  0  0  0  0  0  0  0
  -22.2788  -32.4490  -22.4911 C   0  0  1  0  0  0  0  0  0  0  0  0
  -21.6138  -31.4560  -21.7116 O   0  0  0  0  0  0  0  0  0  0  0  0
  -23.6318  -31.9238  -22.9711 C   0  0  0  0  0  0  0  0  0  0  0  0
  -24.5093  -31.4845  -21.9068 N   0  0  0  0  0  0  0  0  0  0  0  0
  -25.9067  -30.8061  -21.9700 C   0  0  0  0  0  0  0  0  0  0  0  0
  -26.5745  -30.5768  -22.8665 O   0  0  0  0  0  0  0  0  0  0  0  0
  -26.1747  -30.6234  -20.4359 N   0  0  0  0  0  0  0  0  0  0  0  0
  -27.3355  -30.2194  -19.7594 C   0  0  0  0  0  0  0  0  0  0  0  0
  -28.5143  -30.1154  -20.5062 C   0  0  0  0  0  0  0  0  0  0  0  0
  -29.7378  -30.0021  -19.8623 C   0  0  0  0  0  0  0  0  0  0  0  0
  -29.7432  -29.9451  -18.4826 C   0  0  0  0  0  0  0  0  0  0  0  0
  -28.6313  -29.9211  -17.7275 N   0  0  0  0  0  0  0  0  0  0  0  0
  -27.4462  -30.0708  -18.3690 C   0  0  0  0  0  0  0  0  0  0  0  0
  -25.9584  -30.1387  -17.1901 Br  0  0  0  0  0  0  0  0  0  0  0  0
  2  1  1  6
  2  3  1  0
  2  4  1  0
  4  5  1  0
  5  6  1  0
  6  7  2  0
  6  8  1  0
  8  9  1  0
  9 10  2  0
 10 11  1  0
 11 12  2  0
 12 13  1  0
 13 14  2  0
 14 15  1  0
 14  9  1  0
M  END
>  <HIPPO Pose ID>  (173) 
100418

>  <fragmenstein_outcome>  (173) 
acceptable

>  <energy_score>  (173) 
-11.360191

>  <distance_score>  (173) 
0.769364

>  <fragmenstein_mode>  (173) 
expansion

>  <HIPPO Compound ID>  (173) 
46750

>  <name>  (173) 
VKOLUPGBVICVDG-ZCFIWIBFSA-N

>  <ref_pdb>  (173) 
z0215a

>  <ref_mols>  (173) 
z0211a,z0215a

>  <csv_name>  (173) 
RdRp_knitwork_green_site_rna_tunnel_pure_split4000_batch012.csv

>  <fragmenstein_runtime>  (173) 
2.049673

>  <tags>  (173) 
['Fragmenstein placed']

>  <original ID>  (173) 
VKOLUPGBVICVDG-ZCFIWIBFSA-N

>  <fragmenstein_error>  (173) 
None

>  <original SMILES>  (173) 
C[C@@H](O)CNC(=O)Nc1cccnc1Br

>  <inchikey>  (173) 
VKOLUPGBVICVDG-ZCFIWIBFSA-N

>  <SLURM_JOB_NAME>  (173) 
BulkDock.place:Flavi_NS5_RdRp:RdRp_knitwork_green_site_rna_tunnel_pure_split4000_batch012

>  <scratch_subdir>  (173) 
/opt/xchem-fragalysis-2/maxwin/BulkDock/SCRATCH/217083/C46750-P104

>  <alias>  (173) 
None

>  <SLURM_JOB_ID>  (173) 
217083

>  <exports>  (173) 
['/opt/xchem-fragalysis-2/maxwin/BulkDock/OUTPUTS/RdRp_knitwork_green_site_rna_tunnel_pure_split4000_batch012_217083.sdf']

$$$$
100442
     RDKit          3D

 16 16  0  0  0  0  0  0  0  0999 V2000
  -21.2282  -32.9479  -23.6080 C   0  0  0  0  0  0  0  0  0  0  0  0
  -22.0174  -32.3939  -22.4323 C   0  0  1  0  0  0  0  0  0  0  0  0
  -21.3246  -31.2591  -21.9254 O   0  0  0  0  0  0  0  0  0  0  0  0
  -23.4356  -32.0343  -22.8598 C   0  0  0  0  0  0  0  0  0  0  0  0
  -24.2573  -31.4599  -21.8248 N   0  0  0  0  0  0  0  0  0  0  0  0
  -25.6719  -30.8298  -21.9003 C   0  0  0  0  0  0  0  0  0  0  0  0
  -26.3345  -30.6172  -22.8012 O   0  0  0  0  0  0  0  0  0  0  0  0
  -25.9635  -30.6674  -20.3738 N   0  0  0  0  0  0  0  0  0  0  0  0
  -27.1417  -30.3078  -19.7110 C   0  0  0  0  0  0  0  0  0  0  0  0
  -28.3126  -30.2510  -20.4760 C   0  0  0  0  0  0  0  0  0  0  0  0
  -29.5333  -30.0557  -19.8617 C   0  0  0  0  0  0  0  0  0  0  0  0
  -30.6579  -30.0529  -20.5867 F   0  0  0  0  0  0  0  0  0  0  0  0
  -29.5607  -29.8820  -18.4949 C   0  0  0  0  0  0  0  0  0  0  0  0
  -28.4505  -29.8360  -17.7227 N   0  0  0  0  0  0  0  0  0  0  0  0
  -27.2594  -30.0613  -18.3410 C   0  0  0  0  0  0  0  0  0  0  0  0
  -25.7559  -30.0625  -17.1807 Br  0  0  0  0  0  0  0  0  0  0  0  0
  2  1  1  6
  2  3  1  0
  2  4  1  0
  4  5  1  0
  5  6  1  0
  6  7  2  0
  6  8  1  0
  8  9  1  0
  9 10  2  0
 10 11  1  0
 11 12  1  0
 11 13  2  0
 13 14  1  0
 14 15  2  0
 15 16  1  0
 15  9  1  0
M  END
>  <HIPPO Pose ID>  (174) 
100442

>  <fragmenstein_outcome>  (174) 
acceptable

>  <energy_score>  (174) 
-12.433153

>  <distance_score>  (174) 
0.747671

>  <fragmenstein_mode>  (174) 
expansion

>  <HIPPO Compound ID>  (174) 
46807

>  <name>  (174) 
MFLOPZYGSAESOJ-RXMQYKEDSA-N

>  <ref_pdb>  (174) 
z0211a

>  <ref_mols>  (174) 
z0211a,z0215a

>  <csv_name>  (174) 
RdRp_knitwork_green_site_rna_tunnel_pure_split4000_batch012.csv

>  <fragmenstein_runtime>  (174) 
2.238619

>  <tags>  (174) 
['Fragmenstein placed']

>  <original ID>  (174) 
MFLOPZYGSAESOJ-RXMQYKEDSA-N

>  <fragmenstein_error>  (174) 
None

>  <original SMILES>  (174) 
C[C@@H](O)CNC(=O)Nc1cc(F)cnc1Br

>  <inchikey>  (174) 
MFLOPZYGSAESOJ-RXMQYKEDSA-N

>  <SLURM_JOB_NAME>  (174) 
BulkDock.place:Flavi_NS5_RdRp:RdRp_knitwork_green_site_rna_tunnel_pure_split4000_batch012

>  <scratch_subdir>  (174) 
/opt/xchem-fragalysis-2/maxwin/BulkDock/SCRATCH/217083/C46807-P102

>  <alias>  (174) 
None

>  <SLURM_JOB_ID>  (174) 
217083

>  <exports>  (174) 
['/opt/xchem-fragalysis-2/maxwin/BulkDock/OUTPUTS/RdRp_knitwork_green_site_rna_tunnel_pure_split4000_batch012_217083.sdf']

$$$$
100444
     RDKit          3D

 16 16  0  0  0  0  0  0  0  0999 V2000
  -29.5702  -29.9694  -16.0601 C   0  0  0  0  0  0  0  0  0  0  0  0
  -29.8709  -29.8214  -17.4388 O   0  0  0  0  0  0  0  0  0  0  0  0
  -28.7845  -29.8657  -18.2568 C   0  0  0  0  0  0  0  0  0  0  0  0
  -29.0285  -30.0403  -19.6119 C   0  0  0  0  0  0  0  0  0  0  0  0
  -27.9528  -30.2563  -20.4647 C   0  0  0  0  0  0  0  0  0  0  0  0
  -26.6773  -30.3120  -19.9166 C   0  0  0  0  0  0  0  0  0  0  0  0
  -25.6015  -30.7183  -20.6598 N   0  0  0  0  0  0  0  0  0  0  0  0
  -25.4688  -30.9571  -22.1794 C   0  0  0  0  0  0  0  0  0  0  0  0
  -26.2121  -30.7755  -23.0179 O   0  0  0  0  0  0  0  0  0  0  0  0
  -24.0702  -31.6084  -22.2108 N   0  0  0  0  0  0  0  0  0  0  0  0
  -23.2888  -32.0752  -23.3171 C   0  0  0  0  0  0  0  0  0  0  0  0
  -21.8902  -32.4848  -22.8762 C   0  0  1  0  0  0  0  0  0  0  0  0
  -21.0532  -32.9150  -24.0631 C   0  0  0  0  0  0  0  0  0  0  0  0
  -21.2284  -31.4089  -22.2125 O   0  0  0  0  0  0  0  0  0  0  0  0
  -26.4075  -30.0565  -18.6283 N   0  0  0  0  0  0  0  0  0  0  0  0
  -27.4631  -29.8142  -17.8338 C   0  0  0  0  0  0  0  0  0  0  0  0
  1  2  1  0
  2  3  1  0
  3  4  2  0
  4  5  1  0
  5  6  2  0
  6  7  1  0
  7  8  1  0
  8  9  2  0
  8 10  1  0
 10 11  1  0
 11 12  1  0
 12 13  1  6
 12 14  1  0
  6 15  1  0
 15 16  2  0
 16  3  1  0
M  END
>  <HIPPO Pose ID>  (175) 
100444

>  <fragmenstein_outcome>  (175) 
acceptable

>  <energy_score>  (175) 
-18.729822

>  <distance_score>  (175) 
0.812261

>  <fragmenstein_mode>  (175) 
expansion

>  <HIPPO Compound ID>  (175) 
46438

>  <name>  (175) 
IOTXLGIEKLSKFN-SSDOTTSWSA-N

>  <ref_pdb>  (175) 
z0211a

>  <ref_mols>  (175) 
z0211a,z0221a

>  <csv_name>  (175) 
RdRp_knitwork_green_site_rna_tunnel_pure_split4000_batch007.csv

>  <fragmenstein_runtime>  (175) 
2.64189

>  <tags>  (175) 
['Fragmenstein placed']

>  <original ID>  (175) 
IOTXLGIEKLSKFN-SSDOTTSWSA-N

>  <fragmenstein_error>  (175) 
None

>  <original SMILES>  (175) 
COc1ccc(NC(=O)NC[C@@H](C)O)nc1

>  <inchikey>  (175) 
IOTXLGIEKLSKFN-SSDOTTSWSA-N

>  <SLURM_JOB_NAME>  (175) 
BulkDock.place:Flavi_NS5_RdRp:RdRp_knitwork_green_site_rna_tunnel_pure_split4000_batch007

>  <scratch_subdir>  (175) 
/opt/xchem-fragalysis-2/maxwin/BulkDock/SCRATCH/217078/C46438-P102

>  <alias>  (175) 
None

>  <SLURM_JOB_ID>  (175) 
217078

>  <exports>  (175) 
['/opt/xchem-fragalysis-2/maxwin/BulkDock/OUTPUTS/RdRp_knitwork_green_site_rna_tunnel_pure_split4000_batch007_217078.sdf']

$$$$
100446
     RDKit          3D

 16 16  0  0  0  0  0  0  0  0999 V2000
  -21.2828  -32.8698  -23.6509 C   0  0  0  0  0  0  0  0  0  0  0  0
  -22.1632  -32.4549  -22.4819 C   0  0  1  0  0  0  0  0  0  0  0  0
  -21.5009  -31.4247  -21.7530 O   0  0  0  0  0  0  0  0  0  0  0  0
  -23.5340  -31.9836  -22.9649 C   0  0  0  0  0  0  0  0  0  0  0  0
  -24.3749  -31.4168  -21.9339 N   0  0  0  0  0  0  0  0  0  0  0  0
  -25.7536  -30.7101  -22.0369 C   0  0  0  0  0  0  0  0  0  0  0  0
  -26.3651  -30.4187  -22.9547 O   0  0  0  0  0  0  0  0  0  0  0  0
  -26.1058  -30.6081  -20.5129 N   0  0  0  0  0  0  0  0  0  0  0  0
  -27.2955  -30.2204  -19.8815 C   0  0  0  0  0  0  0  0  0  0  0  0
  -28.4317  -30.1040  -20.6896 C   0  0  0  0  0  0  0  0  0  0  0  0
  -29.6761  -29.9914  -20.1044 C   0  0  0  0  0  0  0  0  0  0  0  0
  -30.7737  -29.9641  -20.8679 F   0  0  0  0  0  0  0  0  0  0  0  0
  -29.7614  -29.9543  -18.7282 C   0  0  0  0  0  0  0  0  0  0  0  0
  -28.6886  -29.9467  -17.9087 N   0  0  0  0  0  0  0  0  0  0  0  0
  -27.4712  -30.0861  -18.4930 C   0  0  0  0  0  0  0  0  0  0  0  0
  -26.0333  -30.1351  -17.2499 Br  0  0  0  0  0  0  0  0  0  0  0  0
  2  1  1  6
  2  3  1  0
  2  4  1  0
  4  5  1  0
  5  6  1  0
  6  7  2  0
  6  8  1  0
  8  9  1  0
  9 10  2  0
 10 11  1  0
 11 12  1  0
 11 13  2  0
 13 14  1  0
 14 15  2  0
 15 16  1  0
 15  9  1  0
M  END
>  <HIPPO Pose ID>  (176) 
100446

>  <fragmenstein_outcome>  (176) 
acceptable

>  <energy_score>  (176) 
-11.698581

>  <distance_score>  (176) 
0.744055

>  <fragmenstein_mode>  (176) 
expansion

>  <HIPPO Compound ID>  (176) 
46807

>  <name>  (176) 
MFLOPZYGSAESOJ-RXMQYKEDSA-N

>  <ref_pdb>  (176) 
z0215a

>  <ref_mols>  (176) 
z0211a,z0215a

>  <csv_name>  (176) 
RdRp_knitwork_green_site_rna_tunnel_pure_split4000_batch012.csv

>  <fragmenstein_runtime>  (176) 
2.7122

>  <tags>  (176) 
['Fragmenstein placed']

>  <original ID>  (176) 
MFLOPZYGSAESOJ-RXMQYKEDSA-N

>  <fragmenstein_error>  (176) 
None

>  <original SMILES>  (176) 
C[C@@H](O)CNC(=O)Nc1cc(F)cnc1Br

>  <inchikey>  (176) 
MFLOPZYGSAESOJ-RXMQYKEDSA-N

>  <SLURM_JOB_NAME>  (176) 
BulkDock.place:Flavi_NS5_RdRp:RdRp_knitwork_green_site_rna_tunnel_pure_split4000_batch012

>  <scratch_subdir>  (176) 
/opt/xchem-fragalysis-2/maxwin/BulkDock/SCRATCH/217083/C46807-P104

>  <alias>  (176) 
None

>  <SLURM_JOB_ID>  (176) 
217083

>  <exports>  (176) 
['/opt/xchem-fragalysis-2/maxwin/BulkDock/OUTPUTS/RdRp_knitwork_green_site_rna_tunnel_pure_split4000_batch012_217083.sdf']

$$$$
100512
     RDKit          3D

 15 15  0  0  0  0  0  0  0  0999 V2000
  -21.4043  -32.8700  -23.6725 C   0  0  0  0  0  0  0  0  0  0  0  0
  -22.1824  -32.3758  -22.4621 C   0  0  1  0  0  0  0  0  0  0  0  0
  -21.4392  -31.3285  -21.8492 O   0  0  0  0  0  0  0  0  0  0  0  0
  -23.5792  -31.8987  -22.8535 C   0  0  0  0  0  0  0  0  0  0  0  0
  -24.4001  -31.4629  -21.7474 N   0  0  0  0  0  0  0  0  0  0  0  0
  -25.8414  -30.8876  -21.7317 C   0  0  0  0  0  0  0  0  0  0  0  0
  -26.5891  -30.7556  -22.5797 O   0  0  0  0  0  0  0  0  0  0  0  0
  -26.0028  -30.6394  -20.1991 N   0  0  0  0  0  0  0  0  0  0  0  0
  -27.1287  -30.2802  -19.4561 C   0  0  0  0  0  0  0  0  0  0  0  0
  -28.3648  -30.2251  -20.1065 C   0  0  0  0  0  0  0  0  0  0  0  0
  -29.4998  -29.9612  -19.3636 C   0  0  0  0  0  0  0  0  0  0  0  0
  -29.4780  -29.7074  -18.0383 N   0  0  0  0  0  0  0  0  0  0  0  0
  -28.2667  -29.7293  -17.4381 C   0  0  0  0  0  0  0  0  0  0  0  0
  -27.0823  -30.0201  -18.0931 C   0  0  0  0  0  0  0  0  0  0  0  0
  -25.9516  -30.1082  -17.3808 F   0  0  0  0  0  0  0  0  0  0  0  0
  2  1  1  6
  2  3  1  0
  2  4  1  0
  4  5  1  0
  5  6  1  0
  6  7  2  0
  6  8  1  0
  8  9  1  0
  9 10  2  0
 10 11  1  0
 11 12  2  0
 12 13  1  0
 13 14  2  0
 14 15  1  0
 14  9  1  0
M  END
>  <HIPPO Pose ID>  (177) 
100512

>  <fragmenstein_outcome>  (177) 
acceptable

>  <energy_score>  (177) 
-16.238674

>  <distance_score>  (177) 
0.939694

>  <fragmenstein_mode>  (177) 
expansion

>  <HIPPO Compound ID>  (177) 
47009

>  <name>  (177) 
IIUFRJKDFQKRKK-ZCFIWIBFSA-N

>  <ref_pdb>  (177) 
z0211a

>  <ref_mols>  (177) 
z0211a,z0215a

>  <csv_name>  (177) 
RdRp_knitwork_green_site_rna_tunnel_pure_split4000_batch012.csv

>  <fragmenstein_runtime>  (177) 
2.465827

>  <tags>  (177) 
['Fragmenstein placed']

>  <original ID>  (177) 
IIUFRJKDFQKRKK-ZCFIWIBFSA-N

>  <fragmenstein_error>  (177) 
None

>  <original SMILES>  (177) 
C[C@@H](O)CNC(=O)Nc1ccncc1F

>  <inchikey>  (177) 
IIUFRJKDFQKRKK-ZCFIWIBFSA-N

>  <SLURM_JOB_NAME>  (177) 
BulkDock.place:Flavi_NS5_RdRp:RdRp_knitwork_green_site_rna_tunnel_pure_split4000_batch012

>  <scratch_subdir>  (177) 
/opt/xchem-fragalysis-2/maxwin/BulkDock/SCRATCH/217083/C47009-P102

>  <alias>  (177) 
None

>  <SLURM_JOB_ID>  (177) 
217083

>  <exports>  (177) 
['/opt/xchem-fragalysis-2/maxwin/BulkDock/OUTPUTS/RdRp_knitwork_green_site_rna_tunnel_pure_split4000_batch012_217083.sdf']

$$$$
100514
     RDKit          3D

 15 15  0  0  0  0  0  0  0  0999 V2000
  -21.3703  -32.8418  -23.7312 C   0  0  0  0  0  0  0  0  0  0  0  0
  -22.2618  -32.4729  -22.5558 C   0  0  1  0  0  0  0  0  0  0  0  0
  -21.6019  -31.4806  -21.7702 O   0  0  0  0  0  0  0  0  0  0  0  0
  -23.6243  -31.9583  -23.0217 C   0  0  0  0  0  0  0  0  0  0  0  0
  -24.4680  -31.4985  -21.9412 N   0  0  0  0  0  0  0  0  0  0  0  0
  -25.8983  -30.8938  -21.9699 C   0  0  0  0  0  0  0  0  0  0  0  0
  -26.6205  -30.7519  -22.8411 O   0  0  0  0  0  0  0  0  0  0  0  0
  -26.0977  -30.6320  -20.4403 N   0  0  0  0  0  0  0  0  0  0  0  0
  -27.2386  -30.2447  -19.7297 C   0  0  0  0  0  0  0  0  0  0  0  0
  -28.4426  -30.0883  -20.4163 C   0  0  0  0  0  0  0  0  0  0  0  0
  -29.5999  -29.9242  -19.6787 C   0  0  0  0  0  0  0  0  0  0  0  0
  -29.6276  -29.8481  -18.3294 N   0  0  0  0  0  0  0  0  0  0  0  0
  -28.4409  -29.9332  -17.6910 C   0  0  0  0  0  0  0  0  0  0  0  0
  -27.2370  -30.1328  -18.3379 C   0  0  0  0  0  0  0  0  0  0  0  0
  -26.1285  -30.2910  -17.6015 F   0  0  0  0  0  0  0  0  0  0  0  0
  2  1  1  6
  2  3  1  0
  2  4  1  0
  4  5  1  0
  5  6  1  0
  6  7  2  0
  6  8  1  0
  8  9  1  0
  9 10  2  0
 10 11  1  0
 11 12  2  0
 12 13  1  0
 13 14  2  0
 14 15  1  0
 14  9  1  0
M  END
>  <HIPPO Pose ID>  (178) 
100514

>  <fragmenstein_outcome>  (178) 
acceptable

>  <energy_score>  (178) 
-16.879181

>  <distance_score>  (178) 
0.81696

>  <fragmenstein_mode>  (178) 
expansion

>  <HIPPO Compound ID>  (178) 
47009

>  <name>  (178) 
IIUFRJKDFQKRKK-ZCFIWIBFSA-N

>  <ref_pdb>  (178) 
z0215a

>  <ref_mols>  (178) 
z0211a,z0215a

>  <csv_name>  (178) 
RdRp_knitwork_green_site_rna_tunnel_pure_split4000_batch012.csv

>  <fragmenstein_runtime>  (178) 
3.15265

>  <tags>  (178) 
['Fragmenstein placed']

>  <original ID>  (178) 
IIUFRJKDFQKRKK-ZCFIWIBFSA-N

>  <fragmenstein_error>  (178) 
None

>  <original SMILES>  (178) 
C[C@@H](O)CNC(=O)Nc1ccncc1F

>  <inchikey>  (178) 
IIUFRJKDFQKRKK-ZCFIWIBFSA-N

>  <SLURM_JOB_NAME>  (178) 
BulkDock.place:Flavi_NS5_RdRp:RdRp_knitwork_green_site_rna_tunnel_pure_split4000_batch012

>  <scratch_subdir>  (178) 
/opt/xchem-fragalysis-2/maxwin/BulkDock/SCRATCH/217083/C47009-P104

>  <alias>  (178) 
None

>  <SLURM_JOB_ID>  (178) 
217083

>  <exports>  (178) 
['/opt/xchem-fragalysis-2/maxwin/BulkDock/OUTPUTS/RdRp_knitwork_green_site_rna_tunnel_pure_split4000_batch012_217083.sdf']

$$$$
100519
     RDKit          3D

 15 15  0  0  0  0  0  0  0  0999 V2000
  -21.2267  -32.8831  -23.5747 C   0  0  0  0  0  0  0  0  0  0  0  0
  -22.1422  -32.5414  -22.4105 C   0  0  1  0  0  0  0  0  0  0  0  0
  -21.4350  -31.7018  -21.5003 O   0  0  0  0  0  0  0  0  0  0  0  0
  -23.4049  -31.8373  -22.8985 C   0  0  0  0  0  0  0  0  0  0  0  0
  -24.2701  -31.4037  -21.8294 N   0  0  0  0  0  0  0  0  0  0  0  0
  -25.7314  -30.8914  -21.8670 C   0  0  0  0  0  0  0  0  0  0  0  0
  -26.4616  -30.8178  -22.7358 O   0  0  0  0  0  0  0  0  0  0  0  0
  -25.9410  -30.6036  -20.3514 N   0  0  0  0  0  0  0  0  0  0  0  0
  -27.0999  -30.2698  -19.6467 C   0  0  0  0  0  0  0  0  0  0  0  0
  -28.3323  -30.3542  -20.2987 C   0  0  0  0  0  0  0  0  0  0  0  0
  -29.5120  -30.1492  -19.5953 C   0  0  0  0  0  0  0  0  0  0  0  0
  -29.4184  -29.8379  -18.2529 C   0  0  0  0  0  0  0  0  0  0  0  0
  -28.2507  -29.6697  -17.5974 N   0  0  0  0  0  0  0  0  0  0  0  0
  -27.1133  -29.8909  -18.3065 C   0  0  0  0  0  0  0  0  0  0  0  0
  -25.4928  -29.6114  -17.3601 Br  0  0  0  0  0  0  0  0  0  0  0  0
  2  1  1  6
  2  3  1  0
  2  4  1  0
  4  5  1  0
  5  6  1  0
  6  7  2  0
  6  8  1  0
  8  9  1  0
  9 10  2  0
 10 11  1  0
 11 12  2  0
 12 13  1  0
 13 14  2  0
 14 15  1  0
 14  9  1  0
M  END
>  <HIPPO Pose ID>  (179) 
100519

>  <fragmenstein_outcome>  (179) 
acceptable

>  <energy_score>  (179) 
-14.043207

>  <distance_score>  (179) 
0.842167

>  <fragmenstein_mode>  (179) 
expansion

>  <HIPPO Compound ID>  (179) 
46750

>  <name>  (179) 
VKOLUPGBVICVDG-ZCFIWIBFSA-N

>  <ref_pdb>  (179) 
z0211a

>  <ref_mols>  (179) 
z0211a,z0221a

>  <csv_name>  (179) 
RdRp_knitwork_green_site_rna_tunnel_pure_split4000_batch007.csv

>  <fragmenstein_runtime>  (179) 
2.288981

>  <tags>  (179) 
['Fragmenstein placed']

>  <original ID>  (179) 
VKOLUPGBVICVDG-ZCFIWIBFSA-N

>  <fragmenstein_error>  (179) 
None

>  <original SMILES>  (179) 
C[C@@H](O)CNC(=O)Nc1cccnc1Br

>  <inchikey>  (179) 
VKOLUPGBVICVDG-ZCFIWIBFSA-N

>  <SLURM_JOB_NAME>  (179) 
BulkDock.place:Flavi_NS5_RdRp:RdRp_knitwork_green_site_rna_tunnel_pure_split4000_batch007

>  <scratch_subdir>  (179) 
/opt/xchem-fragalysis-2/maxwin/BulkDock/SCRATCH/217078/C46750-P102

>  <alias>  (179) 
None

>  <SLURM_JOB_ID>  (179) 
217078

>  <exports>  (179) 
['/opt/xchem-fragalysis-2/maxwin/BulkDock/OUTPUTS/RdRp_knitwork_green_site_rna_tunnel_pure_split4000_batch007_217078.sdf']

$$$$
100539
     RDKit          3D

 16 16  0  0  0  0  0  0  0  0999 V2000
  -21.2136  -32.8372  -23.6061 C   0  0  0  0  0  0  0  0  0  0  0  0
  -22.1602  -32.5541  -22.4509 C   0  0  1  0  0  0  0  0  0  0  0  0
  -21.4890  -31.7650  -21.4720 O   0  0  0  0  0  0  0  0  0  0  0  0
  -23.4114  -31.8270  -22.9351 C   0  0  0  0  0  0  0  0  0  0  0  0
  -24.2773  -31.3991  -21.8646 N   0  0  0  0  0  0  0  0  0  0  0  0
  -25.7351  -30.8810  -21.9014 C   0  0  0  0  0  0  0  0  0  0  0  0
  -26.4625  -30.7970  -22.7709 O   0  0  0  0  0  0  0  0  0  0  0  0
  -25.9471  -30.6055  -20.3842 N   0  0  0  0  0  0  0  0  0  0  0  0
  -27.1062  -30.2731  -19.6795 C   0  0  0  0  0  0  0  0  0  0  0  0
  -28.3346  -30.3624  -20.3401 C   0  0  0  0  0  0  0  0  0  0  0  0
  -29.5076  -30.1660  -19.6357 C   0  0  0  0  0  0  0  0  0  0  0  0
  -30.6938  -30.3054  -20.2383 F   0  0  0  0  0  0  0  0  0  0  0  0
  -29.4295  -29.8547  -18.2936 C   0  0  0  0  0  0  0  0  0  0  0  0
  -28.2636  -29.6824  -17.6268 N   0  0  0  0  0  0  0  0  0  0  0  0
  -27.1224  -29.8976  -18.3351 C   0  0  0  0  0  0  0  0  0  0  0  0
  -25.5052  -29.6185  -17.3840 Br  0  0  0  0  0  0  0  0  0  0  0  0
  2  1  1  6
  2  3  1  0
  2  4  1  0
  4  5  1  0
  5  6  1  0
  6  7  2  0
  6  8  1  0
  8  9  1  0
  9 10  2  0
 10 11  1  0
 11 12  1  0
 11 13  2  0
 13 14  1  0
 14 15  2  0
 15 16  1  0
 15  9  1  0
M  END
>  <HIPPO Pose ID>  (180) 
100539

>  <fragmenstein_outcome>  (180) 
acceptable

>  <energy_score>  (180) 
-17.472274

>  <distance_score>  (180) 
0.834821

>  <fragmenstein_mode>  (180) 
expansion

>  <HIPPO Compound ID>  (180) 
46807

>  <name>  (180) 
MFLOPZYGSAESOJ-RXMQYKEDSA-N

>  <ref_pdb>  (180) 
z0211a

>  <ref_mols>  (180) 
z0211a,z0221a

>  <csv_name>  (180) 
RdRp_knitwork_green_site_rna_tunnel_pure_split4000_batch007.csv

>  <fragmenstein_runtime>  (180) 
2.441058

>  <tags>  (180) 
['Fragmenstein placed']

>  <original ID>  (180) 
MFLOPZYGSAESOJ-RXMQYKEDSA-N

>  <fragmenstein_error>  (180) 
None

>  <original SMILES>  (180) 
C[C@@H](O)CNC(=O)Nc1cc(F)cnc1Br

>  <inchikey>  (180) 
MFLOPZYGSAESOJ-RXMQYKEDSA-N

>  <SLURM_JOB_NAME>  (180) 
BulkDock.place:Flavi_NS5_RdRp:RdRp_knitwork_green_site_rna_tunnel_pure_split4000_batch007

>  <scratch_subdir>  (180) 
/opt/xchem-fragalysis-2/maxwin/BulkDock/SCRATCH/217078/C46807-P102

>  <alias>  (180) 
None

>  <SLURM_JOB_ID>  (180) 
217078

>  <exports>  (180) 
['/opt/xchem-fragalysis-2/maxwin/BulkDock/OUTPUTS/RdRp_knitwork_green_site_rna_tunnel_pure_split4000_batch007_217078.sdf']

$$$$
100560
     RDKit          3D

 17 17  0  0  0  0  0  0  0  0999 V2000
  -29.8890  -29.9742  -16.2898 C   0  0  0  0  0  0  0  0  0  0  0  0
  -30.2165  -30.0106  -17.6711 O   0  0  0  0  0  0  0  0  0  0  0  0
  -29.0905  -29.9384  -18.4481 C   0  0  0  0  0  0  0  0  0  0  0  0
  -29.2383  -30.1369  -19.8032 C   0  0  0  0  0  0  0  0  0  0  0  0
  -28.0812  -30.2990  -20.5507 C   0  0  0  0  0  0  0  0  0  0  0  0
  -26.8363  -30.2892  -19.9147 C   0  0  0  0  0  0  0  0  0  0  0  0
  -25.7093  -30.6818  -20.6271 N   0  0  0  0  0  0  0  0  0  0  0  0
  -25.5168  -30.9259  -22.1470 C   0  0  0  0  0  0  0  0  0  0  0  0
  -26.2344  -30.7638  -23.0123 O   0  0  0  0  0  0  0  0  0  0  0  0
  -24.1040  -31.5478  -22.1263 N   0  0  0  0  0  0  0  0  0  0  0  0
  -23.2739  -32.0035  -23.2036 C   0  0  0  0  0  0  0  0  0  0  0  0
  -21.8897  -32.4313  -22.7396 C   0  0  1  0  0  0  0  0  0  0  0  0
  -21.0505  -32.8924  -23.9155 C   0  0  0  0  0  0  0  0  0  0  0  0
  -21.2144  -31.3602  -22.0872 O   0  0  0  0  0  0  0  0  0  0  0  0
  -26.8038  -29.9714  -18.5640 C   0  0  0  0  0  0  0  0  0  0  0  0
  -25.1918  -29.7885  -17.6011 Br  0  0  0  0  0  0  0  0  0  0  0  0
  -27.9089  -29.7777  -17.8302 N   0  0  0  0  0  0  0  0  0  0  0  0
  1  2  1  0
  2  3  1  0
  3  4  2  0
  4  5  1  0
  5  6  2  0
  6  7  1  0
  7  8  1  0
  8  9  2  0
  8 10  1  0
 10 11  1  0
 11 12  1  0
 12 13  1  6
 12 14  1  0
  6 15  1  0
 15 16  1  0
 15 17  2  0
 17  3  1  0
M  END
>  <HIPPO Pose ID>  (181) 
100560

>  <fragmenstein_outcome>  (181) 
acceptable

>  <energy_score>  (181) 
-16.179489

>  <distance_score>  (181) 
0.882649

>  <fragmenstein_mode>  (181) 
expansion

>  <HIPPO Compound ID>  (181) 
46884

>  <name>  (181) 
UCKBYJAHJYDPMO-ZCFIWIBFSA-N

>  <ref_pdb>  (181) 
z0211a

>  <ref_mols>  (181) 
z0211a,z0221a

>  <csv_name>  (181) 
RdRp_knitwork_green_site_rna_tunnel_pure_split4000_batch007.csv

>  <fragmenstein_runtime>  (181) 
4.215554

>  <tags>  (181) 
['Fragmenstein placed']

>  <original ID>  (181) 
UCKBYJAHJYDPMO-ZCFIWIBFSA-N

>  <fragmenstein_error>  (181) 
None

>  <original SMILES>  (181) 
COc1ccc(NC(=O)NC[C@@H](C)O)c(Br)n1

>  <inchikey>  (181) 
UCKBYJAHJYDPMO-ZCFIWIBFSA-N

>  <SLURM_JOB_NAME>  (181) 
BulkDock.place:Flavi_NS5_RdRp:RdRp_knitwork_green_site_rna_tunnel_pure_split4000_batch007

>  <scratch_subdir>  (181) 
/opt/xchem-fragalysis-2/maxwin/BulkDock/SCRATCH/217078/C46884-P102

>  <alias>  (181) 
None

>  <SLURM_JOB_ID>  (181) 
217078

>  <exports>  (181) 
['/opt/xchem-fragalysis-2/maxwin/BulkDock/OUTPUTS/RdRp_knitwork_green_site_rna_tunnel_pure_split4000_batch007_217078.sdf']

$$$$
100561
     RDKit          3D

 17 19  0  0  0  0  0  0  0  0999 V2000
  -25.5986  -34.1546  -19.6099 C   0  0  0  0  0  0  0  0  0  0  0  0
  -25.6305  -33.7094  -20.9250 C   0  0  0  0  0  0  0  0  0  0  0  0
  -25.3338  -32.4531  -21.3051 N   0  0  0  0  0  0  0  0  0  0  0  0
  -25.0139  -31.6028  -20.3064 C   0  0  0  0  0  0  0  0  0  0  0  0
  -24.9597  -31.9365  -18.9418 C   0  0  0  0  0  0  0  0  0  0  0  0
  -24.9823  -30.9107  -17.9160 N   0  0  0  0  0  0  0  0  0  0  0  0
  -26.2912  -30.3652  -17.7831 C   0  0  0  0  0  0  0  0  0  0  0  0
  -27.0627  -30.6849  -16.6792 C   0  0  0  0  0  0  0  0  0  0  0  0
  -28.4405  -30.5681  -16.7964 C   0  0  0  0  0  0  0  0  0  0  0  0
  -28.9897  -30.2470  -18.0449 C   0  0  0  0  0  0  0  0  0  0  0  0
  -30.3580  -30.3117  -18.2901 C   0  0  0  0  0  0  0  0  0  0  0  0
  -30.8587  -30.1278  -19.5822 C   0  0  0  0  0  0  0  0  0  0  0  0
  -29.9985  -29.8172  -20.6246 C   0  0  0  0  0  0  0  0  0  0  0  0
  -28.6397  -29.6925  -20.3652 C   0  0  0  0  0  0  0  0  0  0  0  0
  -28.1275  -29.9106  -19.0945 C   0  0  0  0  0  0  0  0  0  0  0  0
  -26.8114  -29.8664  -18.9220 N   0  0  0  0  0  0  0  0  0  0  0  0
  -25.2573  -33.2542  -18.6033 C   0  0  0  0  0  0  0  0  0  0  0  0
  1  2  2  0
  2  3  1  0
  3  4  2  0
  4  5  1  0
  5  6  1  0
  6  7  1  0
  7  8  2  0
  8  9  1  0
  9 10  2  0
 10 11  1  0
 11 12  2  0
 12 13  1  0
 13 14  2  0
 14 15  1  0
 15 16  2  0
  5 17  2  0
 17  1  1  0
 16  7  1  0
 15 10  1  0
M  END
>  <HIPPO Pose ID>  (182) 
100561

>  <fragmenstein_outcome>  (182) 
acceptable

>  <energy_score>  (182) 
-12.190353

>  <distance_score>  (182) 
0.962322

>  <fragmenstein_mode>  (182) 
expansion

>  <HIPPO Compound ID>  (182) 
26822

>  <name>  (182) 
MWHHZXOBUQCIQQ-UHFFFAOYSA-N

>  <ref_pdb>  (182) 
z1040a

>  <ref_mols>  (182) 
d0472b,z1040a

>  <csv_name>  (182) 
RdRp_knitwork_green_site_rna_tunnel_pure_split4000_batch001.csv

>  <fragmenstein_runtime>  (182) 
1.394005

>  <tags>  (182) 
['Fragmenstein placed']

>  <original ID>  (182) 
MWHHZXOBUQCIQQ-UHFFFAOYSA-N

>  <fragmenstein_error>  (182) 
None

>  <original SMILES>  (182) 
c1cncc(Nc2ccc3ccccc3n2)c1

>  <inchikey>  (182) 
MWHHZXOBUQCIQQ-UHFFFAOYSA-N

>  <SLURM_JOB_NAME>  (182) 
BulkDock.place:Flavi_NS5_RdRp:RdRp_knitwork_green_site_rna_tunnel_pure_split4000_batch001

>  <scratch_subdir>  (182) 
/opt/xchem-fragalysis-2/maxwin/BulkDock/SCRATCH/217072/C26822-P208

>  <alias>  (182) 
None

>  <SLURM_JOB_ID>  (182) 
217072

>  <exports>  (182) 
['/opt/xchem-fragalysis-2/maxwin/BulkDock/OUTPUTS/RdRp_knitwork_green_site_rna_tunnel_pure_split4000_batch001_217072.sdf']

$$$$
100562
     RDKit          3D

 17 17  0  0  0  0  0  0  0  0999 V2000
  -26.7507  -29.8244  -16.4755 C   0  0  0  0  0  0  0  0  0  0  0  0
  -28.0640  -29.7936  -17.0344 O   0  0  0  0  0  0  0  0  0  0  0  0
  -28.0815  -29.9715  -18.3908 C   0  0  0  0  0  0  0  0  0  0  0  0
  -29.3119  -29.8280  -19.0026 C   0  0  0  0  0  0  0  0  0  0  0  0
  -29.3516  -29.8536  -20.3837 C   0  0  0  0  0  0  0  0  0  0  0  0
  -28.1735  -30.0875  -21.0755 C   0  0  0  0  0  0  0  0  0  0  0  0
  -28.2204  -30.0755  -22.4068 F   0  0  0  0  0  0  0  0  0  0  0  0
  -27.0039  -30.3565  -20.3726 C   0  0  0  0  0  0  0  0  0  0  0  0
  -25.8472  -30.7961  -20.9821 N   0  0  0  0  0  0  0  0  0  0  0  0
  -25.4802  -30.8969  -22.4863 C   0  0  0  0  0  0  0  0  0  0  0  0
  -26.0561  -30.5604  -23.4065 O   0  0  0  0  0  0  0  0  0  0  0  0
  -24.1531  -31.6785  -22.3704 N   0  0  0  0  0  0  0  0  0  0  0  0
  -23.2398  -32.1093  -23.3844 C   0  0  0  0  0  0  0  0  0  0  0  0
  -21.8826  -32.4950  -22.8197 C   0  0  1  0  0  0  0  0  0  0  0  0
  -20.9462  -32.8957  -23.9409 C   0  0  0  0  0  0  0  0  0  0  0  0
  -21.2997  -31.4144  -22.0968 O   0  0  0  0  0  0  0  0  0  0  0  0
  -26.9379  -30.2746  -19.0323 N   0  0  0  0  0  0  0  0  0  0  0  0
  1  2  1  0
  2  3  1  0
  3  4  2  0
  4  5  1  0
  5  6  2  0
  6  7  1  0
  6  8  1  0
  8  9  1  0
  9 10  1  0
 10 11  2  0
 10 12  1  0
 12 13  1  0
 13 14  1  0
 14 15  1  6
 14 16  1  0
  8 17  2  0
 17  3  1  0
M  END
>  <HIPPO Pose ID>  (183) 
100562

>  <fragmenstein_outcome>  (183) 
acceptable

>  <energy_score>  (183) 
-0.315731

>  <distance_score>  (183) 
0.914863

>  <fragmenstein_mode>  (183) 
expansion

>  <HIPPO Compound ID>  (183) 
47179

>  <name>  (183) 
CDIKXKGMXFIQDL-ZCFIWIBFSA-N

>  <ref_pdb>  (183) 
z0211a

>  <ref_mols>  (183) 
z0211a,z0215a

>  <csv_name>  (183) 
RdRp_knitwork_green_site_rna_tunnel_pure_split4000_batch012.csv

>  <fragmenstein_runtime>  (183) 
3.377012

>  <tags>  (183) 
['Fragmenstein placed']

>  <original ID>  (183) 
CDIKXKGMXFIQDL-ZCFIWIBFSA-N

>  <fragmenstein_error>  (183) 
None

>  <original SMILES>  (183) 
COc1ccc(F)c(NC(=O)NC[C@@H](C)O)n1

>  <inchikey>  (183) 
CDIKXKGMXFIQDL-ZCFIWIBFSA-N

>  <SLURM_JOB_NAME>  (183) 
BulkDock.place:Flavi_NS5_RdRp:RdRp_knitwork_green_site_rna_tunnel_pure_split4000_batch012

>  <scratch_subdir>  (183) 
/opt/xchem-fragalysis-2/maxwin/BulkDock/SCRATCH/217083/C47179-P102

>  <alias>  (183) 
None

>  <SLURM_JOB_ID>  (183) 
217083

>  <exports>  (183) 
['/opt/xchem-fragalysis-2/maxwin/BulkDock/OUTPUTS/RdRp_knitwork_green_site_rna_tunnel_pure_split4000_batch012_217083.sdf']

$$$$
100585
     RDKit          3D

 17 17  0  0  0  0  0  0  0  0999 V2000
  -26.8543  -30.4302  -15.9481 C   0  0  0  0  0  0  0  0  0  0  0  0
  -26.3687  -30.1698  -17.3812 C   0  0  0  0  0  0  0  0  0  0  0  0
  -27.4837  -30.1176  -18.4036 C   0  0  0  0  0  0  0  0  0  0  0  0
  -28.7256  -29.9643  -17.8635 N   0  0  0  0  0  0  0  0  0  0  0  0
  -29.7877  -29.9510  -18.6959 C   0  0  0  0  0  0  0  0  0  0  0  0
  -29.6801  -29.9690  -20.0653 C   0  0  0  0  0  0  0  0  0  0  0  0
  -30.7621  -29.9287  -20.8508 F   0  0  0  0  0  0  0  0  0  0  0  0
  -28.4255  -30.0752  -20.6222 C   0  0  0  0  0  0  0  0  0  0  0  0
  -27.2999  -30.2237  -19.7989 C   0  0  0  0  0  0  0  0  0  0  0  0
  -26.1206  -30.6336  -20.4442 N   0  0  0  0  0  0  0  0  0  0  0  0
  -25.8256  -30.8660  -21.9704 C   0  0  0  0  0  0  0  0  0  0  0  0
  -26.4831  -30.6787  -22.8838 O   0  0  0  0  0  0  0  0  0  0  0  0
  -24.4204  -31.5191  -21.8634 N   0  0  0  0  0  0  0  0  0  0  0  0
  -23.5211  -31.9810  -22.8982 C   0  0  0  0  0  0  0  0  0  0  0  0
  -22.1571  -32.4505  -22.4021 C   0  0  1  0  0  0  0  0  0  0  0  0
  -21.2624  -32.8554  -23.5645 C   0  0  0  0  0  0  0  0  0  0  0  0
  -21.5153  -31.4099  -21.6663 O   0  0  0  0  0  0  0  0  0  0  0  0
  1  2  1  0
  2  3  1  0
  3  4  2  0
  4  5  1  0
  5  6  2  0
  6  7  1  0
  6  8  1  0
  8  9  2  0
  9 10  1  0
 10 11  1  0
 11 12  2  0
 11 13  1  0
 13 14  1  0
 14 15  1  0
 15 16  1  6
 15 17  1  0
  9  3  1  0
M  END
>  <HIPPO Pose ID>  (184) 
100585

>  <fragmenstein_outcome>  (184) 
acceptable

>  <energy_score>  (184) 
-9.05121

>  <distance_score>  (184) 
0.998922

>  <fragmenstein_mode>  (184) 
expansion

>  <HIPPO Compound ID>  (184) 
47198

>  <name>  (184) 
MQYDCUPHEMHVPT-SSDOTTSWSA-N

>  <ref_pdb>  (184) 
z0215a

>  <ref_mols>  (184) 
z0211a,z0215a

>  <csv_name>  (184) 
RdRp_knitwork_green_site_rna_tunnel_pure_split4000_batch012.csv

>  <fragmenstein_runtime>  (184) 
2.823337

>  <tags>  (184) 
['Fragmenstein placed']

>  <original ID>  (184) 
MQYDCUPHEMHVPT-SSDOTTSWSA-N

>  <fragmenstein_error>  (184) 
None

>  <original SMILES>  (184) 
CCc1ncc(F)cc1NC(=O)NC[C@@H](C)O

>  <inchikey>  (184) 
MQYDCUPHEMHVPT-SSDOTTSWSA-N

>  <SLURM_JOB_NAME>  (184) 
BulkDock.place:Flavi_NS5_RdRp:RdRp_knitwork_green_site_rna_tunnel_pure_split4000_batch012

>  <scratch_subdir>  (184) 
/opt/xchem-fragalysis-2/maxwin/BulkDock/SCRATCH/217083/C47198-P104

>  <alias>  (184) 
None

>  <SLURM_JOB_ID>  (184) 
217083

>  <exports>  (184) 
['/opt/xchem-fragalysis-2/maxwin/BulkDock/OUTPUTS/RdRp_knitwork_green_site_rna_tunnel_pure_split4000_batch012_217083.sdf']

$$$$
100603
     RDKit          3D

 22 25  0  0  0  0  0  0  0  0999 V2000
  -25.0462  -29.8827  -17.0971 N   0  0  0  0  0  0  0  0  0  0  0  0
  -26.3508  -30.2556  -17.4137 C   0  0  0  0  0  0  0  0  0  0  0  0
  -26.8646  -29.6372  -18.4936 N   0  0  0  0  0  0  0  0  0  0  0  0
  -28.1028  -29.9431  -18.8909 C   0  0  0  0  0  0  0  0  0  0  0  0
  -28.5928  -29.4288  -20.0856 C   0  0  0  0  0  0  0  0  0  0  0  0
  -29.8726  -29.7342  -20.5446 C   0  0  0  0  0  0  0  0  0  0  0  0
  -30.6870  -30.5574  -19.7839 C   0  0  0  0  0  0  0  0  0  0  0  0
  -30.2005  -31.1100  -18.6017 C   0  0  0  0  0  0  0  0  0  0  0  0
  -28.9195  -30.8007  -18.1435 C   0  0  0  0  0  0  0  0  0  0  0  0
  -28.3990  -31.3947  -16.9875 C   0  0  0  0  0  0  0  0  0  0  0  0
  -27.0586  -31.1947  -16.6513 C   0  0  0  0  0  0  0  0  0  0  0  0
  -26.2809  -32.2179  -15.9080 C   0  0  0  0  0  0  0  0  0  0  0  0
  -25.0859  -32.5968  -16.3430 N   0  0  0  0  0  0  0  0  0  0  0  0
  -25.4073  -33.7066  -17.0907 C   0  0  0  0  0  0  0  0  0  0  0  0
  -25.3286  -33.6434  -18.5488 C   0  0  0  0  0  0  0  0  0  0  0  0
  -26.2218  -34.3388  -19.3672 C   0  0  0  0  0  0  0  0  0  0  0  0
  -26.3577  -33.9687  -20.7041 C   0  0  0  0  0  0  0  0  0  0  0  0
  -25.5923  -32.9205  -21.1886 C   0  0  0  0  0  0  0  0  0  0  0  0
  -24.6878  -32.2522  -20.4477 N   0  0  0  0  0  0  0  0  0  0  0  0
  -24.5694  -32.6382  -19.1536 C   0  0  0  0  0  0  0  0  0  0  0  0
  -26.1827  -34.5859  -16.3479 C   0  0  0  0  0  0  0  0  0  0  0  0
  -26.9855  -33.6081  -15.1139 S   0  0  0  0  0  0  0  0  0  0  0  0
  1  2  1  0
  2  3  2  0
  3  4  1  0
  4  5  2  0
  5  6  1  0
  6  7  2  0
  7  8  1  0
  8  9  2  0
  9 10  1  0
 10 11  2  0
 11 12  1  0
 12 13  2  0
 13 14  1  0
 14 15  1  0
 15 16  2  0
 16 17  1  0
 17 18  2  0
 18 19  1  0
 19 20  2  0
 14 21  2  0
 21 22  1  0
 11  2  1  0
 22 12  1  0
  9  4  1  0
 20 15  1  0
M  END
>  <HIPPO Pose ID>  (185) 
100603

>  <fragmenstein_outcome>  (185) 
acceptable

>  <energy_score>  (185) 
-35.701574

>  <distance_score>  (185) 
0.99454

>  <fragmenstein_mode>  (185) 
expansion

>  <HIPPO Compound ID>  (185) 
26998

>  <name>  (185) 
IVUJACPYHHVTOO-UHFFFAOYSA-N

>  <ref_pdb>  (185) 
z1040a

>  <ref_mols>  (185) 
d0472b,z1040a

>  <csv_name>  (185) 
RdRp_knitwork_green_site_rna_tunnel_pure_split4000_batch001.csv

>  <fragmenstein_runtime>  (185) 
2.110127

>  <tags>  (185) 
['Fragmenstein placed']

>  <original ID>  (185) 
IVUJACPYHHVTOO-UHFFFAOYSA-N

>  <fragmenstein_error>  (185) 
None

>  <original SMILES>  (185) 
Nc1nc2ccccc2cc1-c1nc(-c2cccnc2)cs1

>  <inchikey>  (185) 
IVUJACPYHHVTOO-UHFFFAOYSA-N

>  <SLURM_JOB_NAME>  (185) 
BulkDock.place:Flavi_NS5_RdRp:RdRp_knitwork_green_site_rna_tunnel_pure_split4000_batch001

>  <scratch_subdir>  (185) 
/opt/xchem-fragalysis-2/maxwin/BulkDock/SCRATCH/217072/C26998-P208

>  <alias>  (185) 
None

>  <SLURM_JOB_ID>  (185) 
217072

>  <exports>  (185) 
['/opt/xchem-fragalysis-2/maxwin/BulkDock/OUTPUTS/RdRp_knitwork_green_site_rna_tunnel_pure_split4000_batch001_217072.sdf']

$$$$
100651
     RDKit          3D

 15 15  0  0  0  0  0  0  0  0999 V2000
  -21.3733  -32.9165  -23.6434 C   0  0  0  0  0  0  0  0  0  0  0  0
  -22.1489  -32.3780  -22.4505 C   0  0  1  0  0  0  0  0  0  0  0  0
  -21.4125  -31.2987  -21.8897 O   0  0  0  0  0  0  0  0  0  0  0  0
  -23.5537  -31.9403  -22.8582 C   0  0  0  0  0  0  0  0  0  0  0  0
  -24.3523  -31.3829  -21.7915 N   0  0  0  0  0  0  0  0  0  0  0  0
  -25.7997  -30.8243  -21.8072 C   0  0  0  0  0  0  0  0  0  0  0  0
  -26.5161  -30.6644  -22.6770 O   0  0  0  0  0  0  0  0  0  0  0  0
  -26.0153  -30.6217  -20.2746 N   0  0  0  0  0  0  0  0  0  0  0  0
  -27.1683  -30.2806  -19.5606 C   0  0  0  0  0  0  0  0  0  0  0  0
  -28.3870  -30.2611  -20.2465 C   0  0  0  0  0  0  0  0  0  0  0  0
  -29.5773  -30.0650  -19.5584 C   0  0  0  0  0  0  0  0  0  0  0  0
  -29.5091  -29.8448  -18.1965 C   0  0  0  0  0  0  0  0  0  0  0  0
  -28.3552  -29.7746  -17.5030 N   0  0  0  0  0  0  0  0  0  0  0  0
  -27.2149  -30.0114  -18.1962 C   0  0  0  0  0  0  0  0  0  0  0  0
  -25.8312  -30.0163  -17.1788 Cl  0  0  0  0  0  0  0  0  0  0  0  0
  2  1  1  6
  2  3  1  0
  2  4  1  0
  4  5  1  0
  5  6  1  0
  6  7  2  0
  6  8  1  0
  8  9  1  0
  9 10  2  0
 10 11  1  0
 11 12  2  0
 12 13  1  0
 13 14  2  0
 14 15  1  0
 14  9  1  0
M  END
>  <HIPPO Pose ID>  (186) 
100651

>  <fragmenstein_outcome>  (186) 
acceptable

>  <energy_score>  (186) 
-10.865159

>  <distance_score>  (186) 
0.81494

>  <fragmenstein_mode>  (186) 
expansion

>  <HIPPO Compound ID>  (186) 
47422

>  <name>  (186) 
KTCJQLOOWQRCDZ-ZCFIWIBFSA-N

>  <ref_pdb>  (186) 
z0211a

>  <ref_mols>  (186) 
z0211a,z0215a

>  <csv_name>  (186) 
RdRp_knitwork_green_site_rna_tunnel_pure_split4000_batch012.csv

>  <fragmenstein_runtime>  (186) 
2.471735

>  <tags>  (186) 
['Fragmenstein placed']

>  <original ID>  (186) 
KTCJQLOOWQRCDZ-ZCFIWIBFSA-N

>  <fragmenstein_error>  (186) 
None

>  <original SMILES>  (186) 
C[C@@H](O)CNC(=O)Nc1cccnc1Cl

>  <inchikey>  (186) 
KTCJQLOOWQRCDZ-ZCFIWIBFSA-N

>  <SLURM_JOB_NAME>  (186) 
BulkDock.place:Flavi_NS5_RdRp:RdRp_knitwork_green_site_rna_tunnel_pure_split4000_batch012

>  <scratch_subdir>  (186) 
/opt/xchem-fragalysis-2/maxwin/BulkDock/SCRATCH/217083/C47422-P102

>  <alias>  (186) 
None

>  <SLURM_JOB_ID>  (186) 
217083

>  <exports>  (186) 
['/opt/xchem-fragalysis-2/maxwin/BulkDock/OUTPUTS/RdRp_knitwork_green_site_rna_tunnel_pure_split4000_batch012_217083.sdf']

$$$$
100659
     RDKit          3D

 15 15  0  0  0  0  0  0  0  0999 V2000
  -21.4017  -32.8695  -23.7034 C   0  0  0  0  0  0  0  0  0  0  0  0
  -22.2802  -32.4618  -22.5306 C   0  0  1  0  0  0  0  0  0  0  0  0
  -21.6002  -31.4618  -21.7744 O   0  0  0  0  0  0  0  0  0  0  0  0
  -23.6418  -31.9465  -23.0009 C   0  0  0  0  0  0  0  0  0  0  0  0
  -24.4527  -31.3841  -21.9438 N   0  0  0  0  0  0  0  0  0  0  0  0
  -25.8491  -30.7044  -22.0002 C   0  0  0  0  0  0  0  0  0  0  0  0
  -26.5017  -30.4350  -22.8966 O   0  0  0  0  0  0  0  0  0  0  0  0
  -26.1428  -30.5918  -20.4663 N   0  0  0  0  0  0  0  0  0  0  0  0
  -27.3132  -30.2198  -19.7928 C   0  0  0  0  0  0  0  0  0  0  0  0
  -28.4957  -30.1129  -20.5287 C   0  0  0  0  0  0  0  0  0  0  0  0
  -29.7113  -30.0011  -19.8666 C   0  0  0  0  0  0  0  0  0  0  0  0
  -29.7031  -29.9515  -18.4835 C   0  0  0  0  0  0  0  0  0  0  0  0
  -28.5843  -29.9389  -17.7367 N   0  0  0  0  0  0  0  0  0  0  0  0
  -27.4163  -30.0837  -18.4028 C   0  0  0  0  0  0  0  0  0  0  0  0
  -26.0797  -30.1448  -17.3224 Cl  0  0  0  0  0  0  0  0  0  0  0  0
  2  1  1  6
  2  3  1  0
  2  4  1  0
  4  5  1  0
  5  6  1  0
  6  7  2  0
  6  8  1  0
  8  9  1  0
  9 10  2  0
 10 11  1  0
 11 12  2  0
 12 13  1  0
 13 14  2  0
 14 15  1  0
 14  9  1  0
M  END
>  <HIPPO Pose ID>  (187) 
100659

>  <fragmenstein_outcome>  (187) 
acceptable

>  <energy_score>  (187) 
-10.288769

>  <distance_score>  (187) 
0.767753

>  <fragmenstein_mode>  (187) 
expansion

>  <HIPPO Compound ID>  (187) 
47422

>  <name>  (187) 
KTCJQLOOWQRCDZ-ZCFIWIBFSA-N

>  <ref_pdb>  (187) 
z0215a

>  <ref_mols>  (187) 
z0211a,z0215a

>  <csv_name>  (187) 
RdRp_knitwork_green_site_rna_tunnel_pure_split4000_batch012.csv

>  <fragmenstein_runtime>  (187) 
2.385368

>  <tags>  (187) 
['Fragmenstein placed']

>  <original ID>  (187) 
KTCJQLOOWQRCDZ-ZCFIWIBFSA-N

>  <fragmenstein_error>  (187) 
None

>  <original SMILES>  (187) 
C[C@@H](O)CNC(=O)Nc1cccnc1Cl

>  <inchikey>  (187) 
KTCJQLOOWQRCDZ-ZCFIWIBFSA-N

>  <SLURM_JOB_NAME>  (187) 
BulkDock.place:Flavi_NS5_RdRp:RdRp_knitwork_green_site_rna_tunnel_pure_split4000_batch012

>  <scratch_subdir>  (187) 
/opt/xchem-fragalysis-2/maxwin/BulkDock/SCRATCH/217083/C47422-P104

>  <alias>  (187) 
None

>  <SLURM_JOB_ID>  (187) 
217083

>  <exports>  (187) 
['/opt/xchem-fragalysis-2/maxwin/BulkDock/OUTPUTS/RdRp_knitwork_green_site_rna_tunnel_pure_split4000_batch012_217083.sdf']

$$$$
100660
     RDKit          3D

 16 16  0  0  0  0  0  0  0  0999 V2000
  -21.2016  -32.9591  -23.8672 C   0  0  0  0  0  0  0  0  0  0  0  0
  -21.8952  -32.1035  -22.8198 C   0  0  2  0  0  0  0  0  0  0  0  0
  -21.6513  -32.6646  -21.5265 O   0  0  0  0  0  0  0  0  0  0  0  0
  -23.3971  -32.0458  -23.0868 C   0  0  0  0  0  0  0  0  0  0  0  0
  -24.1462  -31.4574  -22.0107 N   0  0  0  0  0  0  0  0  0  0  0  0
  -25.5820  -30.8789  -21.9880 C   0  0  0  0  0  0  0  0  0  0  0  0
  -26.3258  -30.7264  -22.8345 O   0  0  0  0  0  0  0  0  0  0  0  0
  -25.7463  -30.6638  -20.4563 N   0  0  0  0  0  0  0  0  0  0  0  0
  -26.8675  -30.3183  -19.7121 C   0  0  0  0  0  0  0  0  0  0  0  0
  -26.7803  -30.0279  -18.3569 C   0  0  0  0  0  0  0  0  0  0  0  0
  -27.8552  -29.7771  -17.5709 N   0  0  0  0  0  0  0  0  0  0  0  0
  -29.0684  -29.8659  -18.1688 C   0  0  0  0  0  0  0  0  0  0  0  0
  -30.1407  -29.7661  -17.3709 F   0  0  0  0  0  0  0  0  0  0  0  0
  -29.2478  -30.1054  -19.5206 C   0  0  0  0  0  0  0  0  0  0  0  0
  -30.4718  -30.1822  -20.0585 F   0  0  0  0  0  0  0  0  0  0  0  0
  -28.1287  -30.3110  -20.3100 C   0  0  0  0  0  0  0  0  0  0  0  0
  2  1  1  6
  2  3  1  0
  2  4  1  0
  4  5  1  0
  5  6  1  0
  6  7  2  0
  6  8  1  0
  8  9  1  0
  9 10  2  0
 10 11  1  0
 11 12  2  0
 12 13  1  0
 12 14  1  0
 14 15  1  0
 14 16  2  0
 16  9  1  0
M  END
>  <HIPPO Pose ID>  (188) 
100660

>  <fragmenstein_outcome>  (188) 
acceptable

>  <energy_score>  (188) 
-11.4448

>  <distance_score>  (188) 
0.869836

>  <fragmenstein_mode>  (188) 
expansion

>  <HIPPO Compound ID>  (188) 
47264

>  <name>  (188) 
RFEJTTKFVGAPNB-YFKPBYRVSA-N

>  <ref_pdb>  (188) 
z0211a

>  <ref_mols>  (188) 
z0211a,z0221a

>  <csv_name>  (188) 
RdRp_knitwork_green_site_rna_tunnel_pure_split4000_batch007.csv

>  <fragmenstein_runtime>  (188) 
2.425137

>  <tags>  (188) 
['Fragmenstein placed']

>  <original ID>  (188) 
RFEJTTKFVGAPNB-YFKPBYRVSA-N

>  <fragmenstein_error>  (188) 
None

>  <original SMILES>  (188) 
C[C@H](O)CNC(=O)Nc1cnc(F)c(F)c1

>  <inchikey>  (188) 
RFEJTTKFVGAPNB-YFKPBYRVSA-N

>  <SLURM_JOB_NAME>  (188) 
BulkDock.place:Flavi_NS5_RdRp:RdRp_knitwork_green_site_rna_tunnel_pure_split4000_batch007

>  <scratch_subdir>  (188) 
/opt/xchem-fragalysis-2/maxwin/BulkDock/SCRATCH/217078/C47264-P102

>  <alias>  (188) 
None

>  <SLURM_JOB_ID>  (188) 
217078

>  <exports>  (188) 
['/opt/xchem-fragalysis-2/maxwin/BulkDock/OUTPUTS/RdRp_knitwork_green_site_rna_tunnel_pure_split4000_batch007_217078.sdf']

$$$$
100712
     RDKit          3D

 15 15  0  0  0  0  0  0  0  0999 V2000
  -21.3003  -32.8722  -23.6884 C   0  0  0  0  0  0  0  0  0  0  0  0
  -22.1011  -32.3692  -22.4981 C   0  0  1  0  0  0  0  0  0  0  0  0
  -21.3748  -31.3123  -21.8772 O   0  0  0  0  0  0  0  0  0  0  0  0
  -23.4858  -31.8917  -22.9232 C   0  0  0  0  0  0  0  0  0  0  0  0
  -24.3023  -31.4150  -21.8332 N   0  0  0  0  0  0  0  0  0  0  0  0
  -25.7763  -30.9399  -21.8182 C   0  0  0  0  0  0  0  0  0  0  0  0
  -26.5536  -30.9353  -22.6463 O   0  0  0  0  0  0  0  0  0  0  0  0
  -25.9102  -30.5678  -20.3147 N   0  0  0  0  0  0  0  0  0  0  0  0
  -27.0373  -30.2196  -19.5668 C   0  0  0  0  0  0  0  0  0  0  0  0
  -28.2972  -30.3017  -20.1660 C   0  0  0  0  0  0  0  0  0  0  0  0
  -29.4443  -30.0903  -19.4114 C   0  0  0  0  0  0  0  0  0  0  0  0
  -29.2917  -29.7687  -18.0752 C   0  0  0  0  0  0  0  0  0  0  0  0
  -28.0957  -29.6033  -17.4699 N   0  0  0  0  0  0  0  0  0  0  0  0
  -26.9999  -29.8354  -18.2329 C   0  0  0  0  0  0  0  0  0  0  0  0
  -25.5251  -29.5542  -17.3998 Cl  0  0  0  0  0  0  0  0  0  0  0  0
  2  1  1  6
  2  3  1  0
  2  4  1  0
  4  5  1  0
  5  6  1  0
  6  7  2  0
  6  8  1  0
  8  9  1  0
  9 10  2  0
 10 11  1  0
 11 12  2  0
 12 13  1  0
 13 14  2  0
 14 15  1  0
 14  9  1  0
M  END
>  <HIPPO Pose ID>  (189) 
100712

>  <fragmenstein_outcome>  (189) 
acceptable

>  <energy_score>  (189) 
-11.461446

>  <distance_score>  (189) 
0.869027

>  <fragmenstein_mode>  (189) 
expansion

>  <HIPPO Compound ID>  (189) 
47422

>  <name>  (189) 
KTCJQLOOWQRCDZ-ZCFIWIBFSA-N

>  <ref_pdb>  (189) 
z0211a

>  <ref_mols>  (189) 
z0211a,z0221a

>  <csv_name>  (189) 
RdRp_knitwork_green_site_rna_tunnel_pure_split4000_batch007.csv

>  <fragmenstein_runtime>  (189) 
3.433045

>  <tags>  (189) 
['Fragmenstein placed']

>  <original ID>  (189) 
KTCJQLOOWQRCDZ-ZCFIWIBFSA-N

>  <fragmenstein_error>  (189) 
None

>  <original SMILES>  (189) 
C[C@@H](O)CNC(=O)Nc1cccnc1Cl

>  <inchikey>  (189) 
KTCJQLOOWQRCDZ-ZCFIWIBFSA-N

>  <SLURM_JOB_NAME>  (189) 
BulkDock.place:Flavi_NS5_RdRp:RdRp_knitwork_green_site_rna_tunnel_pure_split4000_batch007

>  <scratch_subdir>  (189) 
/opt/xchem-fragalysis-2/maxwin/BulkDock/SCRATCH/217078/C47422-P102

>  <alias>  (189) 
None

>  <SLURM_JOB_ID>  (189) 
217078

>  <exports>  (189) 
['/opt/xchem-fragalysis-2/maxwin/BulkDock/OUTPUTS/RdRp_knitwork_green_site_rna_tunnel_pure_split4000_batch007_217078.sdf']

$$$$
100730
     RDKit          3D

 16 16  0  0  0  0  0  0  0  0999 V2000
  -25.7365  -29.7908  -17.6270 C   0  0  0  0  0  0  0  0  0  0  0  0
  -27.0024  -29.9169  -18.4188 C   0  0  0  0  0  0  0  0  0  0  0  0
  -27.0135  -30.2048  -19.7852 C   0  0  0  0  0  0  0  0  0  0  0  0
  -25.8573  -30.5729  -20.4812 N   0  0  0  0  0  0  0  0  0  0  0  0
  -25.6370  -30.8403  -22.0029 C   0  0  0  0  0  0  0  0  0  0  0  0
  -26.3514  -30.7198  -22.8808 O   0  0  0  0  0  0  0  0  0  0  0  0
  -24.1958  -31.4112  -21.9558 N   0  0  0  0  0  0  0  0  0  0  0  0
  -23.4051  -32.0303  -22.9861 C   0  0  0  0  0  0  0  0  0  0  0  0
  -21.9088  -32.0781  -22.6912 C   0  0  2  0  0  0  0  0  0  0  0  0
  -21.1953  -32.9498  -23.7132 C   0  0  0  0  0  0  0  0  0  0  0  0
  -21.6797  -32.6159  -21.3871 O   0  0  0  0  0  0  0  0  0  0  0  0
  -28.2219  -30.1894  -20.4887 C   0  0  0  0  0  0  0  0  0  0  0  0
  -29.3980  -30.0009  -19.7966 C   0  0  0  0  0  0  0  0  0  0  0  0
  -29.4417  -29.8258  -18.4679 N   0  0  0  0  0  0  0  0  0  0  0  0
  -28.2572  -29.7804  -17.8230 C   0  0  0  0  0  0  0  0  0  0  0  0
  -28.4719  -29.6450  -16.1212 Cl  0  0  0  0  0  0  0  0  0  0  0  0
  1  2  1  0
  2  3  2  0
  3  4  1  0
  4  5  1  0
  5  6  2  0
  5  7  1  0
  7  8  1  0
  8  9  1  0
  9 10  1  6
  9 11  1  0
  3 12  1  0
 12 13  2  0
 13 14  1  0
 14 15  2  0
 15 16  1  0
 15  2  1  0
M  END
>  <HIPPO Pose ID>  (190) 
100730

>  <fragmenstein_outcome>  (190) 
acceptable

>  <energy_score>  (190) 
-1.565021

>  <distance_score>  (190) 
0.754292

>  <fragmenstein_mode>  (190) 
expansion

>  <HIPPO Compound ID>  (190) 
47445

>  <name>  (190) 
RCINSAVLQDUDFZ-LURJTMIESA-N

>  <ref_pdb>  (190) 
z0211a

>  <ref_mols>  (190) 
z0211a,z0221a

>  <csv_name>  (190) 
RdRp_knitwork_green_site_rna_tunnel_pure_split4000_batch007.csv

>  <fragmenstein_runtime>  (190) 
3.19186

>  <tags>  (190) 
['Fragmenstein placed']

>  <original ID>  (190) 
RCINSAVLQDUDFZ-LURJTMIESA-N

>  <fragmenstein_error>  (190) 
None

>  <original SMILES>  (190) 
Cc1c(NC(=O)NC[C@H](C)O)ccnc1Cl

>  <inchikey>  (190) 
RCINSAVLQDUDFZ-LURJTMIESA-N

>  <SLURM_JOB_NAME>  (190) 
BulkDock.place:Flavi_NS5_RdRp:RdRp_knitwork_green_site_rna_tunnel_pure_split4000_batch007

>  <scratch_subdir>  (190) 
/opt/xchem-fragalysis-2/maxwin/BulkDock/SCRATCH/217078/C47445-P102

>  <alias>  (190) 
None

>  <SLURM_JOB_ID>  (190) 
217078

>  <exports>  (190) 
['/opt/xchem-fragalysis-2/maxwin/BulkDock/OUTPUTS/RdRp_knitwork_green_site_rna_tunnel_pure_split4000_batch007_217078.sdf']

$$$$
100760
     RDKit          3D

 16 16  0  0  0  0  0  0  0  0999 V2000
  -30.7244  -30.3240  -20.0407 C   0  0  0  0  0  0  0  0  0  0  0  0
  -29.3749  -30.1136  -19.4413 C   0  0  0  0  0  0  0  0  0  0  0  0
  -29.2215  -29.7650  -18.1074 C   0  0  0  0  0  0  0  0  0  0  0  0
  -28.0278  -29.5920  -17.5005 N   0  0  0  0  0  0  0  0  0  0  0  0
  -26.9314  -29.8484  -18.2538 C   0  0  0  0  0  0  0  0  0  0  0  0
  -25.4620  -29.5481  -17.4194 Cl  0  0  0  0  0  0  0  0  0  0  0  0
  -26.9641  -30.2628  -19.5790 C   0  0  0  0  0  0  0  0  0  0  0  0
  -25.8361  -30.6177  -20.3191 N   0  0  0  0  0  0  0  0  0  0  0  0
  -25.6769  -30.8934  -21.8428 C   0  0  0  0  0  0  0  0  0  0  0  0
  -26.4290  -30.7914  -22.6895 O   0  0  0  0  0  0  0  0  0  0  0  0
  -24.2183  -31.4148  -21.8581 N   0  0  0  0  0  0  0  0  0  0  0  0
  -23.4484  -32.0001  -22.9256 C   0  0  0  0  0  0  0  0  0  0  0  0
  -22.0322  -32.3977  -22.5221 C   0  0  1  0  0  0  0  0  0  0  0  0
  -21.2571  -32.9335  -23.7141 C   0  0  0  0  0  0  0  0  0  0  0  0
  -21.3203  -31.2876  -21.9842 O   0  0  0  0  0  0  0  0  0  0  0  0
  -28.2193  -30.3576  -20.1807 C   0  0  0  0  0  0  0  0  0  0  0  0
  1  2  1  0
  2  3  2  0
  3  4  1  0
  4  5  2  0
  5  6  1  0
  5  7  1  0
  7  8  1  0
  8  9  1  0
  9 10  2  0
  9 11  1  0
 11 12  1  0
 12 13  1  0
 13 14  1  6
 13 15  1  0
  7 16  2  0
 16  2  1  0
M  END
>  <HIPPO Pose ID>  (191) 
100760

>  <fragmenstein_outcome>  (191) 
acceptable

>  <energy_score>  (191) 
-14.026318

>  <distance_score>  (191) 
0.859993

>  <fragmenstein_mode>  (191) 
expansion

>  <HIPPO Compound ID>  (191) 
47524

>  <name>  (191) 
JXBTZXWOKQCEHA-SSDOTTSWSA-N

>  <ref_pdb>  (191) 
z0211a

>  <ref_mols>  (191) 
z0211a,z0221a

>  <csv_name>  (191) 
RdRp_knitwork_green_site_rna_tunnel_pure_split4000_batch007.csv

>  <fragmenstein_runtime>  (191) 
3.384713

>  <tags>  (191) 
['Fragmenstein placed']

>  <original ID>  (191) 
JXBTZXWOKQCEHA-SSDOTTSWSA-N

>  <fragmenstein_error>  (191) 
None

>  <original SMILES>  (191) 
Cc1cnc(Cl)c(NC(=O)NC[C@@H](C)O)c1

>  <inchikey>  (191) 
JXBTZXWOKQCEHA-SSDOTTSWSA-N

>  <SLURM_JOB_NAME>  (191) 
BulkDock.place:Flavi_NS5_RdRp:RdRp_knitwork_green_site_rna_tunnel_pure_split4000_batch007

>  <scratch_subdir>  (191) 
/opt/xchem-fragalysis-2/maxwin/BulkDock/SCRATCH/217078/C47524-P102

>  <alias>  (191) 
None

>  <SLURM_JOB_ID>  (191) 
217078

>  <exports>  (191) 
['/opt/xchem-fragalysis-2/maxwin/BulkDock/OUTPUTS/RdRp_knitwork_green_site_rna_tunnel_pure_split4000_batch007_217078.sdf']

$$$$
100767
     RDKit          3D

 16 16  0  0  0  0  0  0  0  0999 V2000
  -30.5308  -29.9547  -20.6518 C   0  0  0  0  0  0  0  0  0  0  0  0
  -29.1811  -29.9168  -20.0280 C   0  0  0  0  0  0  0  0  0  0  0  0
  -28.0482  -30.2177  -20.7678 C   0  0  0  0  0  0  0  0  0  0  0  0
  -26.8370  -30.3740  -20.1002 C   0  0  0  0  0  0  0  0  0  0  0  0
  -25.7036  -30.7737  -20.7871 N   0  0  0  0  0  0  0  0  0  0  0  0
  -25.4494  -30.9114  -22.3121 C   0  0  0  0  0  0  0  0  0  0  0  0
  -26.1137  -30.6423  -23.1942 O   0  0  0  0  0  0  0  0  0  0  0  0
  -24.0651  -31.5921  -22.2777 N   0  0  0  0  0  0  0  0  0  0  0  0
  -23.2820  -32.1550  -23.3360 C   0  0  0  0  0  0  0  0  0  0  0  0
  -21.8769  -32.5053  -22.8662 C   0  0  1  0  0  0  0  0  0  0  0  0
  -21.0118  -32.9240  -24.0363 C   0  0  0  0  0  0  0  0  0  0  0  0
  -21.2628  -31.4001  -22.2060 O   0  0  0  0  0  0  0  0  0  0  0  0
  -26.7684  -30.1725  -18.7385 C   0  0  0  0  0  0  0  0  0  0  0  0
  -27.9467  -29.8358  -18.1137 C   0  0  0  0  0  0  0  0  0  0  0  0
  -28.0138  -29.6190  -16.4403 Cl  0  0  0  0  0  0  0  0  0  0  0  0
  -29.1434  -29.7126  -18.7034 N   0  0  0  0  0  0  0  0  0  0  0  0
  1  2  1  0
  2  3  2  0
  3  4  1  0
  4  5  1  0
  5  6  1  0
  6  7  2  0
  6  8  1  0
  8  9  1  0
  9 10  1  0
 10 11  1  6
 10 12  1  0
  4 13  2  0
 13 14  1  0
 14 15  1  0
 14 16  2  0
 16  2  1  0
M  END
>  <HIPPO Pose ID>  (192) 
100767

>  <fragmenstein_outcome>  (192) 
acceptable

>  <energy_score>  (192) 
-26.487893

>  <distance_score>  (192) 
0.985572

>  <fragmenstein_mode>  (192) 
expansion

>  <HIPPO Compound ID>  (192) 
47730

>  <name>  (192) 
IJPRXOPUIXRMDE-SSDOTTSWSA-N

>  <ref_pdb>  (192) 
z0211a

>  <ref_mols>  (192) 
z0211a,z0215a

>  <csv_name>  (192) 
RdRp_knitwork_green_site_rna_tunnel_pure_split4000_batch012.csv

>  <fragmenstein_runtime>  (192) 
3.4881

>  <tags>  (192) 
['Fragmenstein placed']

>  <original ID>  (192) 
IJPRXOPUIXRMDE-SSDOTTSWSA-N

>  <fragmenstein_error>  (192) 
None

>  <original SMILES>  (192) 
Cc1cc(NC(=O)NC[C@@H](C)O)cc(Cl)n1

>  <inchikey>  (192) 
IJPRXOPUIXRMDE-SSDOTTSWSA-N

>  <SLURM_JOB_NAME>  (192) 
BulkDock.place:Flavi_NS5_RdRp:RdRp_knitwork_green_site_rna_tunnel_pure_split4000_batch012

>  <scratch_subdir>  (192) 
/opt/xchem-fragalysis-2/maxwin/BulkDock/SCRATCH/217083/C47730-P102

>  <alias>  (192) 
None

>  <SLURM_JOB_ID>  (192) 
217083

>  <exports>  (192) 
['/opt/xchem-fragalysis-2/maxwin/BulkDock/OUTPUTS/RdRp_knitwork_green_site_rna_tunnel_pure_split4000_batch012_217083.sdf']

$$$$
100773
     RDKit          3D

 23 25  0  0  0  0  0  0  0  0999 V2000
  -24.5499  -30.8163  -16.0984 C   0  0  0  0  0  0  0  0  0  0  0  0
  -25.1828  -30.1116  -17.1491 O   0  0  0  0  0  0  0  0  0  0  0  0
  -26.4490  -30.4871  -17.4809 C   0  0  0  0  0  0  0  0  0  0  0  0
  -27.1336  -31.5689  -16.9597 C   0  0  0  0  0  0  0  0  0  0  0  0
  -28.3771  -31.9203  -17.5088 C   0  0  0  0  0  0  0  0  0  0  0  0
  -28.9501  -33.2797  -17.1644 C   0  0  0  0  0  0  0  0  0  0  0  0
  -28.1898  -34.4239  -17.6986 N   0  0  0  0  0  0  0  0  0  0  0  0
  -27.9321  -34.5805  -19.3647 S   0  0  0  0  0  0  0  0  0  0  0  0
  -29.0568  -34.0006  -20.0596 O   0  0  0  0  0  0  0  0  0  0  0  0
  -27.5281  -35.9510  -19.5830 O   0  0  0  0  0  0  0  0  0  0  0  0
  -26.4972  -33.6112  -19.6393 C   0  0  0  0  0  0  0  0  0  0  0  0
  -25.3331  -33.8724  -18.9183 C   0  0  0  0  0  0  0  0  0  0  0  0
  -24.2323  -33.0528  -19.1185 C   0  0  0  0  0  0  0  0  0  0  0  0
  -24.3404  -32.0205  -20.0378 C   0  0  0  0  0  0  0  0  0  0  0  0
  -25.4502  -31.7687  -20.7686 N   0  0  0  0  0  0  0  0  0  0  0  0
  -26.5151  -32.5778  -20.5566 C   0  0  0  0  0  0  0  0  0  0  0  0
  -28.9468  -31.0817  -18.4950 C   0  0  0  0  0  0  0  0  0  0  0  0
  -30.2246  -31.2664  -19.0574 C   0  0  0  0  0  0  0  0  0  0  0  0
  -30.6911  -30.4513  -20.0805 C   0  0  0  0  0  0  0  0  0  0  0  0
  -29.8508  -29.5103  -20.6367 C   0  0  0  0  0  0  0  0  0  0  0  0
  -28.6049  -29.2875  -20.0617 C   0  0  0  0  0  0  0  0  0  0  0  0
  -28.1561  -30.0242  -18.9760 C   0  0  0  0  0  0  0  0  0  0  0  0
  -26.9549  -29.7322  -18.4687 N   0  0  0  0  0  0  0  0  0  0  0  0
  1  2  1  0
  2  3  1  0
  3  4  2  0
  4  5  1  0
  5  6  1  0
  6  7  1  0
  7  8  1  0
  8  9  2  0
  8 10  2  0
  8 11  1  0
 11 12  2  0
 12 13  1  0
 13 14  2  0
 14 15  1  0
 15 16  2  0
  5 17  2  0
 17 18  1  0
 18 19  2  0
 19 20  1  0
 20 21  2  0
 21 22  1  0
 22 23  2  0
 23  3  1  0
 16 11  1  0
 22 17  1  0
M  END
>  <HIPPO Pose ID>  (193) 
100773

>  <fragmenstein_outcome>  (193) 
acceptable

>  <energy_score>  (193) 
-19.848752

>  <distance_score>  (193) 
0.960548

>  <fragmenstein_mode>  (193) 
expansion

>  <HIPPO Compound ID>  (193) 
27781

>  <name>  (193) 
VDZHESVJYRPXTC-UHFFFAOYSA-N

>  <ref_pdb>  (193) 
z1040a

>  <ref_mols>  (193) 
d0472b,z1040a

>  <csv_name>  (193) 
RdRp_knitwork_green_site_rna_tunnel_pure_split4000_batch001.csv

>  <fragmenstein_runtime>  (193) 
2.388527

>  <tags>  (193) 
['Fragmenstein placed']

>  <original ID>  (193) 
VDZHESVJYRPXTC-UHFFFAOYSA-N

>  <fragmenstein_error>  (193) 
None

>  <original SMILES>  (193) 
COc1cc(CNS(=O)(=O)c2cccnc2)c2ccccc2n1

>  <inchikey>  (193) 
VDZHESVJYRPXTC-UHFFFAOYSA-N

>  <SLURM_JOB_NAME>  (193) 
BulkDock.place:Flavi_NS5_RdRp:RdRp_knitwork_green_site_rna_tunnel_pure_split4000_batch001

>  <scratch_subdir>  (193) 
/opt/xchem-fragalysis-2/maxwin/BulkDock/SCRATCH/217072/C27781-P208

>  <alias>  (193) 
None

>  <SLURM_JOB_ID>  (193) 
217072

>  <exports>  (193) 
['/opt/xchem-fragalysis-2/maxwin/BulkDock/OUTPUTS/RdRp_knitwork_green_site_rna_tunnel_pure_split4000_batch001_217072.sdf']

$$$$
100793
     RDKit          3D

 16 16  0  0  0  0  0  0  0  0999 V2000
  -20.9735  -32.9063  -23.8980 C   0  0  0  0  0  0  0  0  0  0  0  0
  -21.8682  -32.6723  -22.6971 C   0  0  1  0  0  0  0  0  0  0  0  0
  -21.1608  -31.9002  -21.7248 O   0  0  0  0  0  0  0  0  0  0  0  0
  -23.1322  -31.9402  -23.1204 C   0  0  0  0  0  0  0  0  0  0  0  0
  -23.9230  -31.5348  -21.9949 N   0  0  0  0  0  0  0  0  0  0  0  0
  -25.3834  -31.0454  -21.9250 C   0  0  0  0  0  0  0  0  0  0  0  0
  -26.1722  -30.9715  -22.7389 O   0  0  0  0  0  0  0  0  0  0  0  0
  -25.4777  -30.7346  -20.4064 N   0  0  0  0  0  0  0  0  0  0  0  0
  -26.5679  -30.3749  -19.6310 C   0  0  0  0  0  0  0  0  0  0  0  0
  -26.4350  -30.0574  -18.2893 C   0  0  0  0  0  0  0  0  0  0  0  0
  -27.4853  -29.7826  -17.4832 N   0  0  0  0  0  0  0  0  0  0  0  0
  -28.7157  -29.8745  -18.0419 C   0  0  0  0  0  0  0  0  0  0  0  0
  -29.9609  -29.8092  -16.8651 Cl  0  0  0  0  0  0  0  0  0  0  0  0
  -28.9453  -30.1276  -19.3847 C   0  0  0  0  0  0  0  0  0  0  0  0
  -30.6556  -30.2539  -20.1493 Br  0  0  0  0  0  0  0  0  0  0  0  0
  -27.8435  -30.3607  -20.1938 C   0  0  0  0  0  0  0  0  0  0  0  0
  2  1  1  6
  2  3  1  0
  2  4  1  0
  4  5  1  0
  5  6  1  0
  6  7  2  0
  6  8  1  0
  8  9  1  0
  9 10  2  0
 10 11  1  0
 11 12  2  0
 12 13  1  0
 12 14  1  0
 14 15  1  0
 14 16  2  0
 16  9  1  0
M  END
>  <HIPPO Pose ID>  (194) 
100793

>  <fragmenstein_outcome>  (194) 
acceptable

>  <energy_score>  (194) 
-15.182569

>  <distance_score>  (194) 
0.993062

>  <fragmenstein_mode>  (194) 
expansion

>  <HIPPO Compound ID>  (194) 
47731

>  <name>  (194) 
URFZNSCNHCZBIF-RXMQYKEDSA-N

>  <ref_pdb>  (194) 
z0211a

>  <ref_mols>  (194) 
z0211a,z0221a

>  <csv_name>  (194) 
RdRp_knitwork_green_site_rna_tunnel_pure_split4000_batch007.csv

>  <fragmenstein_runtime>  (194) 
2.407769

>  <tags>  (194) 
['Fragmenstein placed']

>  <original ID>  (194) 
URFZNSCNHCZBIF-RXMQYKEDSA-N

>  <fragmenstein_error>  (194) 
None

>  <original SMILES>  (194) 
C[C@@H](O)CNC(=O)Nc1cnc(Cl)c(Br)c1

>  <inchikey>  (194) 
URFZNSCNHCZBIF-RXMQYKEDSA-N

>  <SLURM_JOB_NAME>  (194) 
BulkDock.place:Flavi_NS5_RdRp:RdRp_knitwork_green_site_rna_tunnel_pure_split4000_batch007

>  <scratch_subdir>  (194) 
/opt/xchem-fragalysis-2/maxwin/BulkDock/SCRATCH/217078/C47731-P102

>  <alias>  (194) 
None

>  <SLURM_JOB_ID>  (194) 
217078

>  <exports>  (194) 
['/opt/xchem-fragalysis-2/maxwin/BulkDock/OUTPUTS/RdRp_knitwork_green_site_rna_tunnel_pure_split4000_batch007_217078.sdf']

$$$$
100868
     RDKit          3D

 22 22  0  0  0  0  0  0  0  0999 V2000
  -21.0670  -33.0575  -24.4838 C   0  0  0  0  0  0  0  0  0  0  0  0
  -21.9150  -32.1611  -23.6046 C   0  0  2  0  0  0  0  0  0  0  0  0
  -21.6886  -32.4988  -22.2231 O   0  0  0  0  0  0  0  0  0  0  0  0
  -23.3951  -32.3406  -23.9534 C   0  0  0  0  0  0  0  0  0  0  0  0
  -24.2272  -31.8772  -22.8862 N   0  0  0  0  0  0  0  0  0  0  0  0
  -25.5073  -31.0117  -22.9181 C   0  0  0  0  0  0  0  0  0  0  0  0
  -26.1079  -30.6181  -23.8018 O   0  0  0  0  0  0  0  0  0  0  0  0
  -25.7893  -30.9240  -21.3975 N   0  0  0  0  0  0  0  0  0  0  0  0
  -26.8856  -30.4271  -20.7172 C   0  0  0  0  0  0  0  0  0  0  0  0
  -28.1031  -30.1580  -21.3226 C   0  0  0  0  0  0  0  0  0  0  0  0
  -29.1646  -29.8030  -20.5018 C   0  0  0  0  0  0  0  0  0  0  0  0
  -29.0708  -29.6593  -19.1586 N   0  0  0  0  0  0  0  0  0  0  0  0
  -27.8529  -29.8730  -18.6388 C   0  0  0  0  0  0  0  0  0  0  0  0
  -27.6089  -29.5744  -17.3324 O   0  0  0  0  0  0  0  0  0  0  0  0
  -28.6013  -30.0641  -16.4400 C   0  0  0  0  0  0  0  0  0  0  0  0
  -27.8580  -30.3811  -15.1582 C   0  0  0  0  0  0  0  0  0  0  0  0
  -28.7429  -30.3826  -14.1311 F   0  0  0  0  0  0  0  0  0  0  0  0
  -26.9705  -29.3836  -14.9007 F   0  0  0  0  0  0  0  0  0  0  0  0
  -27.0675  -31.6686  -15.2030 C   0  0  0  0  0  0  0  0  0  0  0  0
  -26.4755  -31.8950  -13.9953 F   0  0  0  0  0  0  0  0  0  0  0  0
  -27.8967  -32.7098  -15.4262 F   0  0  0  0  0  0  0  0  0  0  0  0
  -26.7480  -30.2729  -19.3518 C   0  0  0  0  0  0  0  0  0  0  0  0
  2  1  1  6
  2  3  1  0
  2  4  1  0
  4  5  1  0
  5  6  1  0
  6  7  2  0
  6  8  1  0
  8  9  1  0
  9 10  2  0
 10 11  1  0
 11 12  2  0
 12 13  1  0
 13 14  1  0
 14 15  1  0
 15 16  1  0
 16 17  1  0
 16 18  1  0
 16 19  1  0
 19 20  1  0
 19 21  1  0
 13 22  2  0
 22  9  1  0
M  END
>  <HIPPO Pose ID>  (195) 
100868

>  <fragmenstein_outcome>  (195) 
acceptable

>  <energy_score>  (195) 
-28.612869

>  <distance_score>  (195) 
0.994987

>  <fragmenstein_mode>  (195) 
expansion

>  <HIPPO Compound ID>  (195) 
47772

>  <name>  (195) 
DMPWKZSZFURZLB-ZETCQYMHSA-N

>  <ref_pdb>  (195) 
z0215a

>  <ref_mols>  (195) 
z0211a,z0215a

>  <csv_name>  (195) 
RdRp_knitwork_green_site_rna_tunnel_pure_split4000_batch012.csv

>  <fragmenstein_runtime>  (195) 
27.488436

>  <tags>  (195) 
['Fragmenstein placed']

>  <original ID>  (195) 
DMPWKZSZFURZLB-ZETCQYMHSA-N

>  <fragmenstein_error>  (195) 
None

>  <original SMILES>  (195) 
C[C@H](O)CNC(=O)Nc1ccnc(OCC(F)(F)C(F)F)c1

>  <inchikey>  (195) 
DMPWKZSZFURZLB-ZETCQYMHSA-N

>  <SLURM_JOB_NAME>  (195) 
BulkDock.place:Flavi_NS5_RdRp:RdRp_knitwork_green_site_rna_tunnel_pure_split4000_batch012

>  <scratch_subdir>  (195) 
/opt/xchem-fragalysis-2/maxwin/BulkDock/SCRATCH/217083/C47772-P104

>  <alias>  (195) 
None

>  <SLURM_JOB_ID>  (195) 
217083

>  <exports>  (195) 
['/opt/xchem-fragalysis-2/maxwin/BulkDock/OUTPUTS/RdRp_knitwork_green_site_rna_tunnel_pure_split4000_batch012_217083.sdf']

$$$$
101143
     RDKit          3D

 19 19  0  0  0  0  0  0  0  0999 V2000
  -27.9563  -30.3444  -14.7521 C   0  0  0  0  0  0  0  0  0  0  0  0
  -28.2647  -30.2780  -16.1256 O   0  0  0  0  0  0  0  0  0  0  0  0
  -27.3228  -29.7039  -16.9003 C   0  0  0  0  0  0  0  0  0  0  0  0
  -26.3055  -29.1447  -16.5234 O   0  0  0  0  0  0  0  0  0  0  0  0
  -27.6837  -29.9293  -18.3220 C   0  0  0  0  0  0  0  0  0  0  0  0
  -26.5978  -30.1627  -19.0844 N   0  0  0  0  0  0  0  0  0  0  0  0
  -26.7869  -30.3186  -20.3929 C   0  0  0  0  0  0  0  0  0  0  0  0
  -25.6756  -30.7390  -21.0690 N   0  0  0  0  0  0  0  0  0  0  0  0
  -25.4329  -30.9128  -22.5821 C   0  0  0  0  0  0  0  0  0  0  0  0
  -26.0984  -30.6582  -23.4657 O   0  0  0  0  0  0  0  0  0  0  0  0
  -24.0686  -31.6250  -22.5364 N   0  0  0  0  0  0  0  0  0  0  0  0
  -23.3132  -32.2419  -23.5770 C   0  0  0  0  0  0  0  0  0  0  0  0
  -21.8147  -31.9987  -23.4298 C   0  0  2  0  0  0  0  0  0  0  0  0
  -21.0691  -33.0989  -24.1534 C   0  0  0  0  0  0  0  0  0  0  0  0
  -21.4222  -32.0278  -22.0546 O   0  0  0  0  0  0  0  0  0  0  0  0
  -28.0150  -30.1831  -21.0099 C   0  0  0  0  0  0  0  0  0  0  0  0
  -29.1376  -30.0233  -20.2068 C   0  0  0  0  0  0  0  0  0  0  0  0
  -28.9894  -29.9353  -18.8199 C   0  0  0  0  0  0  0  0  0  0  0  0
  -30.2021  -29.9184  -17.9483 C   0  0  0  0  0  0  0  0  0  0  0  0
  1  2  1  0
  2  3  1  0
  3  4  2  0
  3  5  1  0
  5  6  2  0
  6  7  1  0
  7  8  1  0
  8  9  1  0
  9 10  2  0
  9 11  1  0
 11 12  1  0
 12 13  1  0
 13 14  1  6
 13 15  1  0
  7 16  2  0
 16 17  1  0
 17 18  2  0
 18 19  1  0
 18  5  1  0
M  END
>  <HIPPO Pose ID>  (196) 
101143

>  <fragmenstein_outcome>  (196) 
acceptable

>  <energy_score>  (196) 
-19.20368

>  <distance_score>  (196) 
0.898493

>  <fragmenstein_mode>  (196) 
expansion

>  <HIPPO Compound ID>  (196) 
48806

>  <name>  (196) 
QHQNUMKFXZFDEX-QMMMGPOBSA-N

>  <ref_pdb>  (196) 
z0211a

>  <ref_mols>  (196) 
z0211a,z0221a

>  <csv_name>  (196) 
RdRp_knitwork_green_site_rna_tunnel_pure_split4000_batch007.csv

>  <fragmenstein_runtime>  (196) 
9.081643

>  <tags>  (196) 
['Fragmenstein placed']

>  <original ID>  (196) 
QHQNUMKFXZFDEX-QMMMGPOBSA-N

>  <fragmenstein_error>  (196) 
None

>  <original SMILES>  (196) 
COC(=O)c1nc(NC(=O)NC[C@H](C)O)ccc1C

>  <inchikey>  (196) 
QHQNUMKFXZFDEX-QMMMGPOBSA-N

>  <SLURM_JOB_NAME>  (196) 
BulkDock.place:Flavi_NS5_RdRp:RdRp_knitwork_green_site_rna_tunnel_pure_split4000_batch007

>  <scratch_subdir>  (196) 
/opt/xchem-fragalysis-2/maxwin/BulkDock/SCRATCH/217078/C48806-P102

>  <alias>  (196) 
None

>  <SLURM_JOB_ID>  (196) 
217078

>  <exports>  (196) 
['/opt/xchem-fragalysis-2/maxwin/BulkDock/OUTPUTS/RdRp_knitwork_green_site_rna_tunnel_pure_split4000_batch007_217078.sdf']

$$$$
101170
     RDKit          3D

 19 19  0  0  0  0  0  0  0  0999 V2000
  -25.3034  -30.7086  -15.2813 C   0  0  0  0  0  0  0  0  0  0  0  0
  -26.2303  -29.9336  -16.2064 C   0  0  0  0  0  0  0  0  0  0  0  0
  -27.6728  -30.4558  -16.2327 C   0  0  1  0  0  0  0  0  0  0  0  0
  -28.3016  -30.3973  -14.8522 C   0  0  0  0  0  0  0  0  0  0  0  0
  -28.5289  -29.6609  -17.0561 O   0  0  0  0  0  0  0  0  0  0  0  0
  -28.4853  -29.9670  -18.4022 C   0  0  0  0  0  0  0  0  0  0  0  0
  -29.6955  -29.9162  -19.0648 C   0  0  0  0  0  0  0  0  0  0  0  0
  -29.6965  -29.9656  -20.4503 C   0  0  0  0  0  0  0  0  0  0  0  0
  -28.4895  -30.1105  -21.1182 C   0  0  0  0  0  0  0  0  0  0  0  0
  -27.3287  -30.2585  -20.3714 C   0  0  0  0  0  0  0  0  0  0  0  0
  -26.1691  -30.6748  -21.0020 N   0  0  0  0  0  0  0  0  0  0  0  0
  -25.8171  -30.7523  -22.5207 C   0  0  0  0  0  0  0  0  0  0  0  0
  -26.4116  -30.4117  -23.4330 O   0  0  0  0  0  0  0  0  0  0  0  0
  -24.4680  -31.5210  -22.4310 N   0  0  0  0  0  0  0  0  0  0  0  0
  -23.6483  -32.0969  -23.4726 C   0  0  0  0  0  0  0  0  0  0  0  0
  -22.1365  -32.0291  -23.2380 C   0  0  2  0  0  0  0  0  0  0  0  0
  -21.4320  -33.1775  -23.9363 C   0  0  0  0  0  0  0  0  0  0  0  0
  -21.8402  -32.0946  -21.8394 O   0  0  0  0  0  0  0  0  0  0  0  0
  -27.3026  -30.1643  -19.0230 N   0  0  0  0  0  0  0  0  0  0  0  0
  1  2  1  0
  2  3  1  0
  3  4  1  1
  3  5  1  0
  5  6  1  0
  6  7  2  0
  7  8  1  0
  8  9  2  0
  9 10  1  0
 10 11  1  0
 11 12  1  0
 12 13  2  0
 12 14  1  0
 14 15  1  0
 15 16  1  0
 16 17  1  6
 16 18  1  0
 10 19  2  0
 19  6  1  0
M  END
>  <HIPPO Pose ID>  (197) 
101170

>  <fragmenstein_outcome>  (197) 
acceptable

>  <energy_score>  (197) 
-232.262993

>  <distance_score>  (197) 
0.813444

>  <fragmenstein_mode>  (197) 
expansion

>  <HIPPO Compound ID>  (197) 
48650

>  <name>  (197) 
KLOBQGFTDAOZOI-VHSXEESVSA-N

>  <ref_pdb>  (197) 
z0215a

>  <ref_mols>  (197) 
z0211a,z0215a

>  <csv_name>  (197) 
RdRp_knitwork_green_site_rna_tunnel_pure_split4000_batch012.csv

>  <fragmenstein_runtime>  (197) 
6.141826

>  <tags>  (197) 
['Fragmenstein placed']

>  <original ID>  (197) 
KLOBQGFTDAOZOI-VHSXEESVSA-N

>  <fragmenstein_error>  (197) 
None

>  <original SMILES>  (197) 
CC[C@@H](C)Oc1cccc(NC(=O)NC[C@H](C)O)n1

>  <inchikey>  (197) 
KLOBQGFTDAOZOI-VHSXEESVSA-N

>  <SLURM_JOB_NAME>  (197) 
BulkDock.place:Flavi_NS5_RdRp:RdRp_knitwork_green_site_rna_tunnel_pure_split4000_batch012

>  <scratch_subdir>  (197) 
/opt/xchem-fragalysis-2/maxwin/BulkDock/SCRATCH/217083/C48650-P104

>  <alias>  (197) 
None

>  <SLURM_JOB_ID>  (197) 
217083

>  <exports>  (197) 
['/opt/xchem-fragalysis-2/maxwin/BulkDock/OUTPUTS/RdRp_knitwork_green_site_rna_tunnel_pure_split4000_batch012_217083.sdf']

$$$$
101190
     RDKit          3D

 15 15  0  0  0  0  0  0  0  0999 V2000
  -26.0015  -30.2613  -17.4157 C   0  0  0  0  0  0  0  0  0  0  0  0
  -27.1680  -30.1508  -18.3509 C   0  0  0  0  0  0  0  0  0  0  0  0
  -28.4204  -29.9088  -17.7916 C   0  0  0  0  0  0  0  0  0  0  0  0
  -29.5661  -29.8100  -18.4930 N   0  0  0  0  0  0  0  0  0  0  0  0
  -29.4680  -29.8908  -19.8331 C   0  0  0  0  0  0  0  0  0  0  0  0
  -28.2766  -30.0839  -20.4996 C   0  0  0  0  0  0  0  0  0  0  0  0
  -27.1107  -30.2609  -19.7506 C   0  0  0  0  0  0  0  0  0  0  0  0
  -25.9581  -30.6723  -20.4323 N   0  0  0  0  0  0  0  0  0  0  0  0
  -25.6622  -30.7490  -21.9701 C   0  0  0  0  0  0  0  0  0  0  0  0
  -26.2953  -30.4148  -22.8599 O   0  0  0  0  0  0  0  0  0  0  0  0
  -24.3035  -31.5048  -21.9315 N   0  0  0  0  0  0  0  0  0  0  0  0
  -23.5194  -32.0736  -23.0023 C   0  0  0  0  0  0  0  0  0  0  0  0
  -22.0151  -32.1371  -22.7300 C   0  0  2  0  0  0  0  0  0  0  0  0
  -21.3175  -32.9551  -23.8062 C   0  0  0  0  0  0  0  0  0  0  0  0
  -21.7816  -32.7298  -21.4487 O   0  0  0  0  0  0  0  0  0  0  0  0
  1  2  1  0
  2  3  2  0
  3  4  1  0
  4  5  2  0
  5  6  1  0
  6  7  2  0
  7  8  1  0
  8  9  1  0
  9 10  2  0
  9 11  1  0
 11 12  1  0
 12 13  1  0
 13 14  1  6
 13 15  1  0
  7  2  1  0
M  END
>  <HIPPO Pose ID>  (198) 
101190

>  <fragmenstein_outcome>  (198) 
acceptable

>  <energy_score>  (198) 
-22.214175

>  <distance_score>  (198) 
0.856159

>  <fragmenstein_mode>  (198) 
expansion

>  <HIPPO Compound ID>  (198) 
48678

>  <name>  (198) 
QVKHESCHDGANBY-QMMMGPOBSA-N

>  <ref_pdb>  (198) 
z0215a

>  <ref_mols>  (198) 
z0211a,z0215a

>  <csv_name>  (198) 
RdRp_knitwork_green_site_rna_tunnel_pure_split4000_batch012.csv

>  <fragmenstein_runtime>  (198) 
4.007285

>  <tags>  (198) 
['Fragmenstein placed']

>  <original ID>  (198) 
QVKHESCHDGANBY-QMMMGPOBSA-N

>  <fragmenstein_error>  (198) 
None

>  <original SMILES>  (198) 
Cc1cnccc1NC(=O)NC[C@H](C)O

>  <inchikey>  (198) 
QVKHESCHDGANBY-QMMMGPOBSA-N

>  <SLURM_JOB_NAME>  (198) 
BulkDock.place:Flavi_NS5_RdRp:RdRp_knitwork_green_site_rna_tunnel_pure_split4000_batch012

>  <scratch_subdir>  (198) 
/opt/xchem-fragalysis-2/maxwin/BulkDock/SCRATCH/217083/C48678-P104

>  <alias>  (198) 
None

>  <SLURM_JOB_ID>  (198) 
217083

>  <exports>  (198) 
['/opt/xchem-fragalysis-2/maxwin/BulkDock/OUTPUTS/RdRp_knitwork_green_site_rna_tunnel_pure_split4000_batch012_217083.sdf']

$$$$
101222
     RDKit          3D

 15 15  0  0  0  0  0  0  0  0999 V2000
  -29.9583  -29.7899  -17.0594 C   0  0  0  0  0  0  0  0  0  0  0  0
  -28.8445  -29.8533  -18.0490 C   0  0  0  0  0  0  0  0  0  0  0  0
  -29.0847  -29.9940  -19.4110 C   0  0  0  0  0  0  0  0  0  0  0  0
  -27.9989  -30.2027  -20.2539 C   0  0  0  0  0  0  0  0  0  0  0  0
  -26.7215  -30.3122  -19.7094 C   0  0  0  0  0  0  0  0  0  0  0  0
  -25.6419  -30.6983  -20.4898 N   0  0  0  0  0  0  0  0  0  0  0  0
  -25.5419  -30.9330  -22.0206 C   0  0  0  0  0  0  0  0  0  0  0  0
  -26.3115  -30.7665  -22.8406 O   0  0  0  0  0  0  0  0  0  0  0  0
  -24.1286  -31.5537  -22.0892 N   0  0  0  0  0  0  0  0  0  0  0  0
  -23.4386  -32.1745  -23.1831 C   0  0  0  0  0  0  0  0  0  0  0  0
  -21.9210  -32.0882  -23.0344 C   0  0  2  0  0  0  0  0  0  0  0  0
  -21.2438  -33.0283  -24.0135 C   0  0  0  0  0  0  0  0  0  0  0  0
  -21.5531  -32.4693  -21.7050 O   0  0  0  0  0  0  0  0  0  0  0  0
  -26.5692  -30.1015  -18.3508 C   0  0  0  0  0  0  0  0  0  0  0  0
  -27.6002  -29.8496  -17.5157 N   0  0  0  0  0  0  0  0  0  0  0  0
  1  2  1  0
  2  3  2  0
  3  4  1  0
  4  5  2  0
  5  6  1  0
  6  7  1  0
  7  8  2  0
  7  9  1  0
  9 10  1  0
 10 11  1  0
 11 12  1  6
 11 13  1  0
  5 14  1  0
 14 15  2  0
 15  2  1  0
M  END
>  <HIPPO Pose ID>  (199) 
101222

>  <fragmenstein_outcome>  (199) 
acceptable

>  <energy_score>  (199) 
-8.649899

>  <distance_score>  (199) 
0.910195

>  <fragmenstein_mode>  (199) 
expansion

>  <HIPPO Compound ID>  (199) 
49399

>  <name>  (199) 
OHAJSJXPJJKMCM-QMMMGPOBSA-N

>  <ref_pdb>  (199) 
z0211a

>  <ref_mols>  (199) 
z0211a,z0221a

>  <csv_name>  (199) 
RdRp_knitwork_green_site_rna_tunnel_pure_split4000_batch007.csv

>  <fragmenstein_runtime>  (199) 
3.318225

>  <tags>  (199) 
['Fragmenstein placed']

>  <original ID>  (199) 
OHAJSJXPJJKMCM-QMMMGPOBSA-N

>  <fragmenstein_error>  (199) 
None

>  <original SMILES>  (199) 
Cc1ccc(NC(=O)NC[C@H](C)O)cn1

>  <inchikey>  (199) 
OHAJSJXPJJKMCM-QMMMGPOBSA-N

>  <SLURM_JOB_NAME>  (199) 
BulkDock.place:Flavi_NS5_RdRp:RdRp_knitwork_green_site_rna_tunnel_pure_split4000_batch007

>  <scratch_subdir>  (199) 
/opt/xchem-fragalysis-2/maxwin/BulkDock/SCRATCH/217078/C49399-P102

>  <alias>  (199) 
None

>  <SLURM_JOB_ID>  (199) 
217078

>  <exports>  (199) 
['/opt/xchem-fragalysis-2/maxwin/BulkDock/OUTPUTS/RdRp_knitwork_green_site_rna_tunnel_pure_split4000_batch007_217078.sdf']

$$$$
101312
     RDKit          3D

 19 19  0  0  0  0  0  0  0  0999 V2000
  -25.2561  -29.7604  -17.6025 C   0  0  0  0  0  0  0  0  0  0  0  0
  -26.6028  -29.8879  -18.2372 C   0  0  0  0  0  0  0  0  0  0  0  0
  -27.6458  -29.7304  -17.3966 N   0  0  0  0  0  0  0  0  0  0  0  0
  -28.9037  -29.9375  -17.8680 C   0  0  0  0  0  0  0  0  0  0  0  0
  -29.9720  -30.1824  -16.8270 C   0  0  0  0  0  0  0  0  0  0  0  0
  -29.4580  -30.5228  -15.6102 F   0  0  0  0  0  0  0  0  0  0  0  0
  -30.8270  -31.1914  -17.1537 F   0  0  0  0  0  0  0  0  0  0  0  0
  -30.7634  -29.1206  -16.5828 F   0  0  0  0  0  0  0  0  0  0  0  0
  -29.1647  -30.0994  -19.2240 C   0  0  0  0  0  0  0  0  0  0  0  0
  -28.0811  -30.2110  -20.0912 C   0  0  0  0  0  0  0  0  0  0  0  0
  -26.7792  -30.1970  -19.5815 C   0  0  0  0  0  0  0  0  0  0  0  0
  -25.7121  -30.5903  -20.3853 N   0  0  0  0  0  0  0  0  0  0  0  0
  -25.6622  -30.9092  -21.9041 C   0  0  0  0  0  0  0  0  0  0  0  0
  -26.4687  -30.8176  -22.7005 O   0  0  0  0  0  0  0  0  0  0  0  0
  -24.2275  -31.4833  -21.9955 N   0  0  0  0  0  0  0  0  0  0  0  0
  -23.5557  -32.1428  -23.0830 C   0  0  0  0  0  0  0  0  0  0  0  0
  -22.0325  -32.0777  -22.9637 C   0  0  2  0  0  0  0  0  0  0  0  0
  -21.3743  -33.0353  -23.9417 C   0  0  0  0  0  0  0  0  0  0  0  0
  -21.6454  -32.4400  -21.6353 O   0  0  0  0  0  0  0  0  0  0  0  0
  1  2  1  0
  2  3  2  0
  3  4  1  0
  4  5  1  0
  5  6  1  0
  5  7  1  0
  5  8  1  0
  4  9  2  0
  9 10  1  0
 10 11  2  0
 11 12  1  0
 12 13  1  0
 13 14  2  0
 13 15  1  0
 15 16  1  0
 16 17  1  0
 17 18  1  6
 17 19  1  0
 11  2  1  0
M  END
>  <HIPPO Pose ID>  (200) 
101312

>  <fragmenstein_outcome>  (200) 
acceptable

>  <energy_score>  (200) 
-10.692742

>  <distance_score>  (200) 
0.98223

>  <fragmenstein_mode>  (200) 
expansion

>  <HIPPO Compound ID>  (200) 
49943

>  <name>  (200) 
OQYDBCOBZAVKMW-LURJTMIESA-N

>  <ref_pdb>  (200) 
z0211a

>  <ref_mols>  (200) 
z0211a,z0221a

>  <csv_name>  (200) 
RdRp_knitwork_green_site_rna_tunnel_pure_split4000_batch007.csv

>  <fragmenstein_runtime>  (200) 
4.666268

>  <tags>  (200) 
['Fragmenstein placed']

>  <original ID>  (200) 
OQYDBCOBZAVKMW-LURJTMIESA-N

>  <fragmenstein_error>  (200) 
None

>  <original SMILES>  (200) 
Cc1nc(C(F)(F)F)ccc1NC(=O)NC[C@H](C)O

>  <inchikey>  (200) 
OQYDBCOBZAVKMW-LURJTMIESA-N

>  <SLURM_JOB_NAME>  (200) 
BulkDock.place:Flavi_NS5_RdRp:RdRp_knitwork_green_site_rna_tunnel_pure_split4000_batch007

>  <scratch_subdir>  (200) 
/opt/xchem-fragalysis-2/maxwin/BulkDock/SCRATCH/217078/C49943-P102

>  <alias>  (200) 
None

>  <SLURM_JOB_ID>  (200) 
217078

>  <exports>  (200) 
['/opt/xchem-fragalysis-2/maxwin/BulkDock/OUTPUTS/RdRp_knitwork_green_site_rna_tunnel_pure_split4000_batch007_217078.sdf']

$$$$
101452
     RDKit          3D

 19 19  0  0  0  0  0  0  0  0999 V2000
  -28.7005  -30.0816  -14.8112 C   0  0  0  0  0  0  0  0  0  0  0  0
  -29.6979  -30.6986  -15.6237 O   0  0  0  0  0  0  0  0  0  0  0  0
  -30.0131  -30.0758  -16.7853 C   0  0  0  0  0  0  0  0  0  0  0  0
  -31.1413  -29.6864  -17.0092 O   0  0  0  0  0  0  0  0  0  0  0  0
  -28.9279  -30.0016  -17.7934 C   0  0  0  0  0  0  0  0  0  0  0  0
  -29.1812  -29.9626  -19.1560 C   0  0  0  0  0  0  0  0  0  0  0  0
  -28.0958  -30.0974  -20.0240 C   0  0  0  0  0  0  0  0  0  0  0  0
  -26.8160  -30.3212  -19.4998 C   0  0  0  0  0  0  0  0  0  0  0  0
  -25.7675  -30.7157  -20.3294 N   0  0  0  0  0  0  0  0  0  0  0  0
  -25.7186  -30.8967  -21.8770 C   0  0  0  0  0  0  0  0  0  0  0  0
  -26.5070  -30.6730  -22.6698 O   0  0  0  0  0  0  0  0  0  0  0  0
  -24.3248  -31.5639  -22.0101 N   0  0  0  0  0  0  0  0  0  0  0  0
  -23.6037  -31.9975  -23.1838 C   0  0  0  0  0  0  0  0  0  0  0  0
  -22.2174  -32.5265  -22.7996 C   0  0  1  0  0  0  0  0  0  0  0  0
  -21.3572  -32.8338  -24.0107 C   0  0  0  0  0  0  0  0  0  0  0  0
  -21.5442  -31.5672  -21.9761 O   0  0  0  0  0  0  0  0  0  0  0  0
  -26.6581  -30.2694  -18.1108 C   0  0  0  0  0  0  0  0  0  0  0  0
  -25.4020  -30.5060  -17.3468 C   0  0  0  0  0  0  0  0  0  0  0  0
  -27.6908  -30.0678  -17.2833 N   0  0  0  0  0  0  0  0  0  0  0  0
  1  2  1  0
  2  3  1  0
  3  4  2  0
  3  5  1  0
  5  6  2  0
  6  7  1  0
  7  8  2  0
  8  9  1  0
  9 10  1  0
 10 11  2  0
 10 12  1  0
 12 13  1  0
 13 14  1  0
 14 15  1  6
 14 16  1  0
  8 17  1  0
 17 18  1  0
 17 19  2  0
 19  5  1  0
M  END
>  <HIPPO Pose ID>  (201) 
101452

>  <fragmenstein_outcome>  (201) 
acceptable

>  <energy_score>  (201) 
-33.589538

>  <distance_score>  (201) 
0.984051

>  <fragmenstein_mode>  (201) 
expansion

>  <HIPPO Compound ID>  (201) 
49779

>  <name>  (201) 
AVPPUTFFTNWBLK-SSDOTTSWSA-N

>  <ref_pdb>  (201) 
z0215a

>  <ref_mols>  (201) 
z0211a,z0215a

>  <csv_name>  (201) 
RdRp_knitwork_green_site_rna_tunnel_pure_split4000_batch012.csv

>  <fragmenstein_runtime>  (201) 
5.025876

>  <tags>  (201) 
['Fragmenstein placed']

>  <original ID>  (201) 
AVPPUTFFTNWBLK-SSDOTTSWSA-N

>  <fragmenstein_error>  (201) 
None

>  <original SMILES>  (201) 
COC(=O)c1ccc(NC(=O)NC[C@@H](C)O)c(C)n1

>  <inchikey>  (201) 
AVPPUTFFTNWBLK-SSDOTTSWSA-N

>  <SLURM_JOB_NAME>  (201) 
BulkDock.place:Flavi_NS5_RdRp:RdRp_knitwork_green_site_rna_tunnel_pure_split4000_batch012

>  <scratch_subdir>  (201) 
/opt/xchem-fragalysis-2/maxwin/BulkDock/SCRATCH/217083/C49779-P104

>  <alias>  (201) 
None

>  <SLURM_JOB_ID>  (201) 
217083

>  <exports>  (201) 
['/opt/xchem-fragalysis-2/maxwin/BulkDock/OUTPUTS/RdRp_knitwork_green_site_rna_tunnel_pure_split4000_batch012_217083.sdf']

$$$$
101547
     RDKit          3D

 15 15  0  0  0  0  0  0  0  0999 V2000
  -20.8898  -32.8824  -23.8925 C   0  0  0  0  0  0  0  0  0  0  0  0
  -21.8459  -32.4777  -22.7906 C   0  0  1  0  0  0  0  0  0  0  0  0
  -21.2689  -31.4145  -22.0366 O   0  0  0  0  0  0  0  0  0  0  0  0
  -23.1740  -32.0544  -23.3898 C   0  0  0  0  0  0  0  0  0  0  0  0
  -24.1141  -31.6326  -22.3977 N   0  0  0  0  0  0  0  0  0  0  0  0
  -25.4748  -30.9244  -22.5490 C   0  0  0  0  0  0  0  0  0  0  0  0
  -26.0602  -30.6513  -23.4834 O   0  0  0  0  0  0  0  0  0  0  0  0
  -25.8573  -30.7864  -21.0502 N   0  0  0  0  0  0  0  0  0  0  0  0
  -27.0436  -30.3812  -20.4617 C   0  0  0  0  0  0  0  0  0  0  0  0
  -28.1730  -30.1550  -21.2436 C   0  0  0  0  0  0  0  0  0  0  0  0
  -29.4103  -29.9356  -20.7467 N   0  0  0  0  0  0  0  0  0  0  0  0
  -29.5013  -29.8641  -19.4082 C   0  0  0  0  0  0  0  0  0  0  0  0
  -28.4046  -29.9422  -18.5670 C   0  0  0  0  0  0  0  0  0  0  0  0
  -28.5952  -29.6486  -16.9064 Cl  0  0  0  0  0  0  0  0  0  0  0  0
  -27.1542  -30.2450  -19.0905 C   0  0  0  0  0  0  0  0  0  0  0  0
  2  1  1  6
  2  3  1  0
  2  4  1  0
  4  5  1  0
  5  6  1  0
  6  7  2  0
  6  8  1  0
  8  9  1  0
  9 10  2  0
 10 11  1  0
 11 12  2  0
 12 13  1  0
 13 14  1  0
 13 15  2  0
 15  9  1  0
M  END
>  <HIPPO Pose ID>  (202) 
101547

>  <fragmenstein_outcome>  (202) 
acceptable

>  <energy_score>  (202) 
-15.193053

>  <distance_score>  (202) 
0.956277

>  <fragmenstein_mode>  (202) 
expansion

>  <HIPPO Compound ID>  (202) 
50592

>  <name>  (202) 
HNIDIRNCXQONKP-ZCFIWIBFSA-N

>  <ref_pdb>  (202) 
z0211a

>  <ref_mols>  (202) 
z0211a,z0215a

>  <csv_name>  (202) 
RdRp_knitwork_green_site_rna_tunnel_pure_split4000_batch012.csv

>  <fragmenstein_runtime>  (202) 
2.985008

>  <tags>  (202) 
['Fragmenstein placed']

>  <original ID>  (202) 
HNIDIRNCXQONKP-ZCFIWIBFSA-N

>  <fragmenstein_error>  (202) 
None

>  <original SMILES>  (202) 
C[C@@H](O)CNC(=O)Nc1cncc(Cl)c1

>  <inchikey>  (202) 
HNIDIRNCXQONKP-ZCFIWIBFSA-N

>  <SLURM_JOB_NAME>  (202) 
BulkDock.place:Flavi_NS5_RdRp:RdRp_knitwork_green_site_rna_tunnel_pure_split4000_batch012

>  <scratch_subdir>  (202) 
/opt/xchem-fragalysis-2/maxwin/BulkDock/SCRATCH/217083/C50592-P102

>  <alias>  (202) 
None

>  <SLURM_JOB_ID>  (202) 
217083

>  <exports>  (202) 
['/opt/xchem-fragalysis-2/maxwin/BulkDock/OUTPUTS/RdRp_knitwork_green_site_rna_tunnel_pure_split4000_batch012_217083.sdf']

$$$$
101589
     RDKit          3D

 19 21  0  0  0  0  0  0  0  0999 V2000
  -25.2430  -36.0762  -24.4141 O   0  0  0  0  0  0  0  0  0  0  0  0
  -24.8629  -35.0113  -23.9548 C   0  0  0  0  0  0  0  0  0  0  0  0
  -24.1350  -34.1747  -24.7145 O   0  0  0  0  0  0  0  0  0  0  0  0
  -25.2354  -34.4844  -22.5993 C   0  0  0  0  0  0  0  0  0  0  0  0
  -24.1941  -33.5485  -21.9777 C   0  0  1  0  0  0  0  0  0  0  0  0
  -24.8162  -32.8034  -20.7987 C   0  0  0  0  0  0  0  0  0  0  0  0
  -25.0156  -33.2827  -19.4665 C   0  0  0  0  0  0  0  0  0  0  0  0
  -25.5910  -32.2715  -18.7310 C   0  0  0  0  0  0  0  0  0  0  0  0
  -25.7736  -31.1998  -19.5591 N   0  0  0  0  0  0  0  0  0  0  0  0
  -25.3122  -31.5103  -20.8107 C   0  0  0  0  0  0  0  0  0  0  0  0
  -22.9279  -34.2515  -21.5544 C   0  0  0  0  0  0  0  0  0  0  0  0
  -22.7211  -35.6089  -21.3739 C   0  0  0  0  0  0  0  0  0  0  0  0
  -21.4711  -35.8580  -20.9155 O   0  0  0  0  0  0  0  0  0  0  0  0
  -20.8509  -34.6600  -20.7790 C   0  0  0  0  0  0  0  0  0  0  0  0
  -19.5595  -34.4764  -20.2918 C   0  0  0  0  0  0  0  0  0  0  0  0
  -19.0888  -33.1603  -20.2541 C   0  0  0  0  0  0  0  0  0  0  0  0
  -19.8884  -32.0957  -20.6797 C   0  0  0  0  0  0  0  0  0  0  0  0
  -21.1932  -32.3137  -21.1467 C   0  0  0  0  0  0  0  0  0  0  0  0
  -21.6858  -33.6320  -21.1976 C   0  0  0  0  0  0  0  0  0  0  0  0
  1  2  2  0
  2  3  1  0
  2  4  1  0
  5  4  1  1
  5  6  1  0
  6  7  1  0
  7  8  2  0
  8  9  1  0
  9 10  1  0
  5 11  1  0
 11 12  2  0
 12 13  1  0
 13 14  1  0
 14 15  2  0
 15 16  1  0
 16 17  2  0
 17 18  1  0
 18 19  2  0
 10  6  2  0
 19 11  1  0
 19 14  1  0
M  END
>  <HIPPO Pose ID>  (203) 
101589

>  <fragmenstein_outcome>  (203) 
acceptable

>  <energy_score>  (203) 
-70.01317

>  <distance_score>  (203) 
0.860545

>  <fragmenstein_mode>  (203) 
expansion

>  <HIPPO Compound ID>  (203) 
36241

>  <name>  (203) 
TWGAHBFXBYGBAF-LBPRGKRZSA-N

>  <ref_pdb>  (203) 
3vws-b

>  <ref_mols>  (203) 
d0472b,3vws-b

>  <csv_name>  (203) 
RdRp_knitwork_green_site_rna_tunnel_pure_split4000_batch007.csv

>  <fragmenstein_runtime>  (203) 
3.866487

>  <tags>  (203) 
['Fragmenstein placed']

>  <original ID>  (203) 
TWGAHBFXBYGBAF-LBPRGKRZSA-N

>  <fragmenstein_error>  (203) 
None

>  <original SMILES>  (203) 
O=C(O)C[C@@H](c1cc[nH]c1)c1coc2ccccc12

>  <inchikey>  (203) 
TWGAHBFXBYGBAF-LBPRGKRZSA-N

>  <SLURM_JOB_NAME>  (203) 
BulkDock.place:Flavi_NS5_RdRp:RdRp_knitwork_green_site_rna_tunnel_pure_split4000_batch007

>  <scratch_subdir>  (203) 
/opt/xchem-fragalysis-2/maxwin/BulkDock/SCRATCH/217078/C36241-P217

>  <alias>  (203) 
None

>  <SLURM_JOB_ID>  (203) 
217078

>  <exports>  (203) 
['/opt/xchem-fragalysis-2/maxwin/BulkDock/OUTPUTS/RdRp_knitwork_green_site_rna_tunnel_pure_split4000_batch007_217078.sdf']

$$$$
101620
     RDKit          3D

 16 18  0  0  0  0  0  0  0  0999 V2000
  -23.8843  -31.9741  -22.9598 O   0  0  0  0  0  0  0  0  0  0  0  0
  -24.2136  -33.1449  -22.2055 C   0  0  2  0  0  0  0  0  0  0  0  0
  -24.9745  -32.6843  -20.9922 C   0  0  0  0  0  0  0  0  0  0  0  0
  -25.8691  -33.3636  -20.1813 C   0  0  0  0  0  0  0  0  0  0  0  0
  -26.1861  -32.5272  -19.0852 C   0  0  0  0  0  0  0  0  0  0  0  0
  -25.5040  -31.3460  -19.2633 C   0  0  0  0  0  0  0  0  0  0  0  0
  -24.7795  -31.4456  -20.4200 N   0  0  0  0  0  0  0  0  0  0  0  0
  -23.0179  -33.9357  -21.7963 C   0  0  0  0  0  0  0  0  0  0  0  0
  -22.9605  -35.3149  -21.6884 C   0  0  0  0  0  0  0  0  0  0  0  0
  -21.7808  -35.7176  -21.1570 O   0  0  0  0  0  0  0  0  0  0  0  0
  -21.0530  -34.5978  -20.9143 C   0  0  0  0  0  0  0  0  0  0  0  0
  -19.7889  -34.5741  -20.3288 C   0  0  0  0  0  0  0  0  0  0  0  0
  -19.1868  -33.3191  -20.1944 C   0  0  0  0  0  0  0  0  0  0  0  0
  -19.8358  -32.1587  -20.6248 C   0  0  0  0  0  0  0  0  0  0  0  0
  -21.1187  -32.2155  -21.1894 C   0  0  0  0  0  0  0  0  0  0  0  0
  -21.7455  -33.4682  -21.3360 C   0  0  0  0  0  0  0  0  0  0  0  0
  2  1  1  1
  2  3  1  0
  3  4  2  0
  4  5  1  0
  5  6  2  0
  6  7  1  0
  2  8  1  0
  8  9  2  0
  9 10  1  0
 10 11  1  0
 11 12  2  0
 12 13  1  0
 13 14  2  0
 14 15  1  0
 15 16  2  0
  7  3  1  0
 16  8  1  0
 16 11  1  0
M  END
>  <HIPPO Pose ID>  (204) 
101620

>  <fragmenstein_outcome>  (204) 
acceptable

>  <energy_score>  (204) 
-38.766198

>  <distance_score>  (204) 
0.778447

>  <fragmenstein_mode>  (204) 
expansion

>  <HIPPO Compound ID>  (204) 
36298

>  <name>  (204) 
HYIWPPHFOCAHNB-ZDUSSCGKSA-N

>  <ref_pdb>  (204) 
3vws-b

>  <ref_mols>  (204) 
d0472b,3vws-b

>  <csv_name>  (204) 
RdRp_knitwork_green_site_rna_tunnel_pure_split4000_batch007.csv

>  <fragmenstein_runtime>  (204) 
2.70033

>  <tags>  (204) 
['Fragmenstein placed']

>  <original ID>  (204) 
HYIWPPHFOCAHNB-ZDUSSCGKSA-N

>  <fragmenstein_error>  (204) 
None

>  <original SMILES>  (204) 
O[C@H](c1ccc[nH]1)c1coc2ccccc12

>  <inchikey>  (204) 
HYIWPPHFOCAHNB-ZDUSSCGKSA-N

>  <SLURM_JOB_NAME>  (204) 
BulkDock.place:Flavi_NS5_RdRp:RdRp_knitwork_green_site_rna_tunnel_pure_split4000_batch007

>  <scratch_subdir>  (204) 
/opt/xchem-fragalysis-2/maxwin/BulkDock/SCRATCH/217078/C36298-P217

>  <alias>  (204) 
None

>  <SLURM_JOB_ID>  (204) 
217078

>  <exports>  (204) 
['/opt/xchem-fragalysis-2/maxwin/BulkDock/OUTPUTS/RdRp_knitwork_green_site_rna_tunnel_pure_split4000_batch007_217078.sdf']

$$$$
101638
     RDKit          3D

 16 18  0  0  0  0  0  0  0  0999 V2000
  -24.9331  -33.6099  -23.1801 N   0  0  0  0  0  0  0  0  0  0  0  0
  -24.1272  -33.0229  -22.1235 C   0  0  1  0  0  0  0  0  0  0  0  0
  -24.9772  -32.6915  -20.9266 C   0  0  0  0  0  0  0  0  0  0  0  0
  -25.7029  -33.4998  -20.0635 C   0  0  0  0  0  0  0  0  0  0  0  0
  -26.1894  -32.6911  -19.0103 C   0  0  0  0  0  0  0  0  0  0  0  0
  -25.7869  -31.4022  -19.2685 C   0  0  0  0  0  0  0  0  0  0  0  0
  -25.0726  -31.4057  -20.4365 N   0  0  0  0  0  0  0  0  0  0  0  0
  -23.0054  -33.9350  -21.7432 C   0  0  0  0  0  0  0  0  0  0  0  0
  -22.9964  -35.3182  -21.6746 C   0  0  0  0  0  0  0  0  0  0  0  0
  -21.8293  -35.7785  -21.1601 O   0  0  0  0  0  0  0  0  0  0  0  0
  -21.0593  -34.6944  -20.8890 C   0  0  0  0  0  0  0  0  0  0  0  0
  -19.7921  -34.7318  -20.3121 C   0  0  0  0  0  0  0  0  0  0  0  0
  -19.1457  -33.5026  -20.1452 C   0  0  0  0  0  0  0  0  0  0  0  0
  -19.7573  -32.3073  -20.5328 C   0  0  0  0  0  0  0  0  0  0  0  0
  -21.0452  -32.3022  -21.0880 C   0  0  0  0  0  0  0  0  0  0  0  0
  -21.7128  -33.5296  -21.2711 C   0  0  0  0  0  0  0  0  0  0  0  0
  2  1  1  6
  2  3  1  0
  3  4  2  0
  4  5  1  0
  5  6  2  0
  6  7  1  0
  2  8  1  0
  8  9  2  0
  9 10  1  0
 10 11  1  0
 11 12  2  0
 12 13  1  0
 13 14  2  0
 14 15  1  0
 15 16  2  0
  7  3  1  0
 16  8  1  0
 16 11  1  0
M  END
>  <HIPPO Pose ID>  (205) 
101638

>  <fragmenstein_outcome>  (205) 
acceptable

>  <energy_score>  (205) 
-23.960342

>  <distance_score>  (205) 
0.748949

>  <fragmenstein_mode>  (205) 
expansion

>  <HIPPO Compound ID>  (205) 
36362

>  <name>  (205) 
KXIJUHUKXVYANA-CYBMUJFWSA-N

>  <ref_pdb>  (205) 
3vws-b

>  <ref_mols>  (205) 
d0472b,3vws-b

>  <csv_name>  (205) 
RdRp_knitwork_green_site_rna_tunnel_pure_split4000_batch007.csv

>  <fragmenstein_runtime>  (205) 
3.393735

>  <tags>  (205) 
['Fragmenstein placed']

>  <original ID>  (205) 
KXIJUHUKXVYANA-CYBMUJFWSA-N

>  <fragmenstein_error>  (205) 
None

>  <original SMILES>  (205) 
N[C@@H](c1ccc[nH]1)c1coc2ccccc12

>  <inchikey>  (205) 
KXIJUHUKXVYANA-CYBMUJFWSA-N

>  <SLURM_JOB_NAME>  (205) 
BulkDock.place:Flavi_NS5_RdRp:RdRp_knitwork_green_site_rna_tunnel_pure_split4000_batch007

>  <scratch_subdir>  (205) 
/opt/xchem-fragalysis-2/maxwin/BulkDock/SCRATCH/217078/C36362-P217

>  <alias>  (205) 
None

>  <SLURM_JOB_ID>  (205) 
217078

>  <exports>  (205) 
['/opt/xchem-fragalysis-2/maxwin/BulkDock/OUTPUTS/RdRp_knitwork_green_site_rna_tunnel_pure_split4000_batch007_217078.sdf']

$$$$
101842
     RDKit          3D

 23 25  0  0  0  0  0  0  0  0999 V2000
  -21.3233  -32.8759  -23.7178 C   0  0  0  0  0  0  0  0  0  0  0  0
  -22.0738  -32.1143  -22.6353 C   0  0  2  0  0  0  0  0  0  0  0  0
  -21.9813  -32.8318  -21.3998 O   0  0  0  0  0  0  0  0  0  0  0  0
  -23.5459  -31.9230  -23.0160 C   0  0  0  0  0  0  0  0  0  0  0  0
  -24.3546  -31.3363  -21.9706 N   0  0  0  0  0  0  0  0  0  0  0  0
  -25.7975  -30.7520  -22.0202 C   0  0  0  0  0  0  0  0  0  0  0  0
  -26.4982  -30.5922  -22.9075 O   0  0  0  0  0  0  0  0  0  0  0  0
  -26.0427  -30.5406  -20.4872 N   0  0  0  0  0  0  0  0  0  0  0  0
  -27.2075  -30.1910  -19.7973 C   0  0  0  0  0  0  0  0  0  0  0  0
  -28.4194  -30.0814  -20.4863 C   0  0  0  0  0  0  0  0  0  0  0  0
  -29.6318  -30.0055  -19.7871 C   0  0  0  0  0  0  0  0  0  0  0  0
  -29.6525  -30.0352  -18.3907 C   0  0  0  0  0  0  0  0  0  0  0  0
  -28.4495  -30.0662  -17.7118 C   0  0  0  0  0  0  0  0  0  0  0  0
  -27.2340  -30.0948  -18.4084 C   0  0  0  0  0  0  0  0  0  0  0  0
  -26.1068  -30.0644  -17.4241 C   0  0  0  0  0  0  0  0  0  0  0  0
  -26.7849  -29.9015  -16.1208 N   0  0  0  0  0  0  0  0  0  0  0  0
  -25.9596  -30.3566  -15.1167 C   0  0  0  0  0  0  0  0  0  0  0  0
  -26.0492  -31.6292  -14.5716 C   0  0  0  0  0  0  0  0  0  0  0  0
  -25.0106  -32.1054  -13.7658 C   0  0  0  0  0  0  0  0  0  0  0  0
  -23.9166  -31.3005  -13.4967 C   0  0  0  0  0  0  0  0  0  0  0  0
  -23.9073  -30.0418  -14.0533 C   0  0  0  0  0  0  0  0  0  0  0  0
  -24.8944  -29.5647  -14.8384 N   0  0  0  0  0  0  0  0  0  0  0  0
  -28.2172  -30.1700  -16.2308 C   0  0  0  0  0  0  0  0  0  0  0  0
  2  1  1  6
  2  3  1  0
  2  4  1  0
  4  5  1  0
  5  6  1  0
  6  7  2  0
  6  8  1  0
  8  9  1  0
  9 10  2  0
 10 11  1  0
 11 12  2  0
 12 13  1  0
 13 14  2  0
 14 15  1  0
 15 16  1  0
 16 17  1  0
 17 18  2  0
 18 19  1  0
 19 20  2  0
 20 21  1  0
 21 22  2  0
 16 23  1  0
 14  9  1  0
 22 17  1  0
 23 13  1  0
M  END
>  <HIPPO Pose ID>  (206) 
101842

>  <fragmenstein_outcome>  (206) 
acceptable

>  <energy_score>  (206) 
-26.410628

>  <distance_score>  (206) 
0.975952

>  <fragmenstein_mode>  (206) 
expansion

>  <HIPPO Compound ID>  (206) 
26966

>  <name>  (206) 
QZNJUMNWDLOSNM-LBPRGKRZSA-N

>  <ref_pdb>  (206) 
z0215a

>  <ref_mols>  (206) 
z0211a,z0215a

>  <csv_name>  (206) 
RdRp_knitwork_green_site_rna_tunnel_pure_split4000_batch012.csv

>  <fragmenstein_runtime>  (206) 
10.757011

>  <tags>  (206) 
['Fragmenstein placed']

>  <original ID>  (206) 
QZNJUMNWDLOSNM-LBPRGKRZSA-N

>  <fragmenstein_error>  (206) 
None

>  <original SMILES>  (206) 
C[C@H](O)CNC(=O)Nc1cccc2c1CN(c1ccccn1)C2

>  <inchikey>  (206) 
QZNJUMNWDLOSNM-LBPRGKRZSA-N

>  <SLURM_JOB_NAME>  (206) 
BulkDock.place:Flavi_NS5_RdRp:RdRp_knitwork_green_site_rna_tunnel_pure_split4000_batch012

>  <scratch_subdir>  (206) 
/opt/xchem-fragalysis-2/maxwin/BulkDock/SCRATCH/217083/C26966-P104

>  <alias>  (206) 
None

>  <SLURM_JOB_ID>  (206) 
217083

>  <exports>  (206) 
['/opt/xchem-fragalysis-2/maxwin/BulkDock/OUTPUTS/RdRp_knitwork_green_site_rna_tunnel_pure_split4000_batch012_217083.sdf']

$$$$
101914
     RDKit          3D

 17 19  0  0  0  0  0  0  0  0999 V2000
  -26.0399  -34.8074  -23.3369 N   0  0  0  0  0  0  0  0  0  0  0  0
  -25.2412  -34.1641  -22.7885 C   0  0  0  0  0  0  0  0  0  0  0  0
  -24.2371  -33.3420  -22.0827 C   0  0  1  0  0  0  0  0  0  0  0  0
  -24.8847  -32.6501  -20.8904 C   0  0  0  0  0  0  0  0  0  0  0  0
  -25.1182  -33.1915  -19.5843 C   0  0  0  0  0  0  0  0  0  0  0  0
  -25.6885  -32.2082  -18.8087 C   0  0  0  0  0  0  0  0  0  0  0  0
  -25.8419  -31.0947  -19.5852 N   0  0  0  0  0  0  0  0  0  0  0  0
  -25.3537  -31.3463  -20.8406 C   0  0  0  0  0  0  0  0  0  0  0  0
  -23.0351  -34.1430  -21.6629 C   0  0  0  0  0  0  0  0  0  0  0  0
  -22.9213  -35.5165  -21.5223 C   0  0  0  0  0  0  0  0  0  0  0  0
  -21.7050  -35.8579  -21.0310 O   0  0  0  0  0  0  0  0  0  0  0  0
  -21.0125  -34.7074  -20.8383 C   0  0  0  0  0  0  0  0  0  0  0  0
  -19.7291  -34.6214  -20.3046 C   0  0  0  0  0  0  0  0  0  0  0  0
  -19.1771  -33.3398  -20.2111 C   0  0  0  0  0  0  0  0  0  0  0  0
  -19.8929  -32.2140  -20.6277 C   0  0  0  0  0  0  0  0  0  0  0  0
  -21.1933  -32.3332  -21.1410 C   0  0  0  0  0  0  0  0  0  0  0  0
  -21.7662  -33.6156  -21.2500 C   0  0  0  0  0  0  0  0  0  0  0  0
  1  2  3  0
  3  2  1  1
  3  4  1  0
  4  5  1  0
  5  6  2  0
  6  7  1  0
  7  8  1  0
  3  9  1  0
  9 10  2  0
 10 11  1  0
 11 12  1  0
 12 13  2  0
 13 14  1  0
 14 15  2  0
 15 16  1  0
 16 17  2  0
  8  4  2  0
 17  9  1  0
 17 12  1  0
M  END
>  <HIPPO Pose ID>  (207) 
101914

>  <fragmenstein_outcome>  (207) 
acceptable

>  <energy_score>  (207) 
-29.335496

>  <distance_score>  (207) 
0.778543

>  <fragmenstein_mode>  (207) 
expansion

>  <HIPPO Compound ID>  (207) 
36918

>  <name>  (207) 
OEWNCQOTBMMQRU-LBPRGKRZSA-N

>  <ref_pdb>  (207) 
3vws-b

>  <ref_mols>  (207) 
d0472b,3vws-b

>  <csv_name>  (207) 
RdRp_knitwork_green_site_rna_tunnel_pure_split4000_batch007.csv

>  <fragmenstein_runtime>  (207) 
3.767182

>  <tags>  (207) 
['Fragmenstein placed']

>  <original ID>  (207) 
OEWNCQOTBMMQRU-LBPRGKRZSA-N

>  <fragmenstein_error>  (207) 
None

>  <original SMILES>  (207) 
N#C[C@@H](c1cc[nH]c1)c1coc2ccccc12

>  <inchikey>  (207) 
OEWNCQOTBMMQRU-LBPRGKRZSA-N

>  <SLURM_JOB_NAME>  (207) 
BulkDock.place:Flavi_NS5_RdRp:RdRp_knitwork_green_site_rna_tunnel_pure_split4000_batch007

>  <scratch_subdir>  (207) 
/opt/xchem-fragalysis-2/maxwin/BulkDock/SCRATCH/217078/C36918-P217

>  <alias>  (207) 
None

>  <SLURM_JOB_ID>  (207) 
217078

>  <exports>  (207) 
['/opt/xchem-fragalysis-2/maxwin/BulkDock/OUTPUTS/RdRp_knitwork_green_site_rna_tunnel_pure_split4000_batch007_217078.sdf']

$$$$
101919
     RDKit          3D

 15 17  0  0  0  0  0  0  0  0999 V2000
  -28.4434  -30.6614  -16.4211 C   0  0  0  0  0  0  0  0  0  0  0  0
  -27.6209  -29.9294  -17.2610 C   0  0  0  0  0  0  0  0  0  0  0  0
  -27.9888  -29.7892  -18.5984 C   0  0  0  0  0  0  0  0  0  0  0  0
  -27.1699  -29.1074  -19.5061 C   0  0  0  0  0  0  0  0  0  0  0  0
  -27.5027  -29.0594  -20.8632 C   0  0  0  0  0  0  0  0  0  0  0  0
  -26.5770  -28.4980  -21.8295 C   0  0  0  0  0  0  0  0  0  0  0  0
  -25.9003  -27.3042  -21.6588 C   0  0  0  0  0  0  0  0  0  0  0  0
  -24.9258  -26.9885  -23.0370 S   0  0  0  0  0  0  0  0  0  0  0  0
  -25.4407  -28.4730  -23.7206 C   0  0  0  0  0  0  0  0  0  0  0  0
  -26.3226  -29.1555  -23.0218 N   0  0  0  0  0  0  0  0  0  0  0  0
  -28.7026  -29.6339  -21.3004 C   0  0  0  0  0  0  0  0  0  0  0  0
  -29.5500  -30.2780  -20.3985 C   0  0  0  0  0  0  0  0  0  0  0  0
  -29.1826  -30.3844  -19.0488 C   0  0  0  0  0  0  0  0  0  0  0  0
  -29.9308  -31.0979  -18.1133 C   0  0  0  0  0  0  0  0  0  0  0  0
  -29.5942  -31.2451  -16.8103 N   0  0  0  0  0  0  0  0  0  0  0  0
  1  2  2  0
  2  3  1  0
  3  4  2  0
  4  5  1  0
  5  6  1  0
  6  7  2  0
  7  8  1  0
  8  9  1  0
  9 10  2  0
  5 11  2  0
 11 12  1  0
 12 13  2  0
 13 14  1  0
 14 15  2  0
 15  1  1  0
 13  3  1  0
 10  6  1  0
M  END
>  <HIPPO Pose ID>  (208) 
101919

>  <fragmenstein_outcome>  (208) 
acceptable

>  <energy_score>  (208) 
-39.403236

>  <distance_score>  (208) 
0.919145

>  <fragmenstein_mode>  (208) 
expansion

>  <HIPPO Compound ID>  (208) 
29796

>  <name>  (208) 
LZEZZOBYMRLTRX-UHFFFAOYSA-N

>  <ref_pdb>  (208) 
z0496a

>  <ref_mols>  (208) 
z0111a,z0496a

>  <csv_name>  (208) 
RdRp_knitwork_green_site_rna_tunnel_pure_split4000_batch002.csv

>  <fragmenstein_runtime>  (208) 
10.173267

>  <tags>  (208) 
['Fragmenstein placed']

>  <original ID>  (208) 
LZEZZOBYMRLTRX-UHFFFAOYSA-N

>  <fragmenstein_error>  (208) 
None

>  <original SMILES>  (208) 
c1cc2cc(-c3cscn3)ccc2cn1

>  <inchikey>  (208) 
LZEZZOBYMRLTRX-UHFFFAOYSA-N

>  <SLURM_JOB_NAME>  (208) 
BulkDock.place:Flavi_NS5_RdRp:RdRp_knitwork_green_site_rna_tunnel_pure_split4000_batch002

>  <scratch_subdir>  (208) 
/opt/xchem-fragalysis-2/maxwin/BulkDock/SCRATCH/217073/C29796-P136

>  <alias>  (208) 
None

>  <SLURM_JOB_ID>  (208) 
217073

>  <exports>  (208) 
['/opt/xchem-fragalysis-2/maxwin/BulkDock/OUTPUTS/RdRp_knitwork_green_site_rna_tunnel_pure_split4000_batch002_217073.sdf']

$$$$
102056
     RDKit          3D

 18 20  0  0  0  0  0  0  0  0999 V2000
  -25.6179  -29.4383  -19.2836 C   0  0  0  0  0  0  0  0  0  0  0  0
  -25.4807  -30.8568  -19.5021 N   0  0  0  0  0  0  0  0  0  0  0  0
  -25.2654  -31.8051  -18.5439 C   0  0  0  0  0  0  0  0  0  0  0  0
  -25.1766  -33.0292  -19.1727 C   0  0  0  0  0  0  0  0  0  0  0  0
  -25.3390  -32.8112  -20.5689 C   0  0  0  0  0  0  0  0  0  0  0  0
  -25.3198  -33.8371  -21.6623 C   0  0  0  0  0  0  0  0  0  0  0  0
  -24.0564  -33.8670  -22.5563 C   0  0  1  0  0  0  0  0  0  0  0  0
  -23.7302  -32.5972  -23.2195 N   0  0  0  0  0  0  0  0  0  0  0  0
  -22.8570  -34.4145  -21.8365 C   0  0  0  0  0  0  0  0  0  0  0  0
  -22.6803  -35.7644  -21.5771 C   0  0  0  0  0  0  0  0  0  0  0  0
  -21.5187  -35.9965  -20.9290 O   0  0  0  0  0  0  0  0  0  0  0  0
  -20.9211  -34.7952  -20.7421 C   0  0  0  0  0  0  0  0  0  0  0  0
  -19.6924  -34.6142  -20.1105 C   0  0  0  0  0  0  0  0  0  0  0  0
  -19.2136  -33.3049  -20.0326 C   0  0  0  0  0  0  0  0  0  0  0  0
  -19.9527  -32.2411  -20.5507 C   0  0  0  0  0  0  0  0  0  0  0  0
  -21.1974  -32.4560  -21.1640 C   0  0  0  0  0  0  0  0  0  0  0  0
  -21.6970  -33.7716  -21.2783 C   0  0  0  0  0  0  0  0  0  0  0  0
  -25.5254  -31.4520  -20.7274 C   0  0  0  0  0  0  0  0  0  0  0  0
  1  2  1  0
  2  3  1  0
  3  4  2  0
  4  5  1  0
  5  6  1  0
  6  7  1  0
  7  8  1  1
  7  9  1  0
  9 10  2  0
 10 11  1  0
 11 12  1  0
 12 13  2  0
 13 14  1  0
 14 15  2  0
 15 16  1  0
 16 17  2  0
  5 18  2  0
 18  2  1  0
 17  9  1  0
 17 12  1  0
M  END
>  <HIPPO Pose ID>  (209) 
102056

>  <fragmenstein_outcome>  (209) 
acceptable

>  <energy_score>  (209) 
-28.204434

>  <distance_score>  (209) 
0.893835

>  <fragmenstein_mode>  (209) 
expansion

>  <HIPPO Compound ID>  (209) 
37680

>  <name>  (209) 
FIVYWUXLUXTLFU-CQSZACIVSA-N

>  <ref_pdb>  (209) 
3vws-b

>  <ref_mols>  (209) 
d0472b,3vws-b

>  <csv_name>  (209) 
RdRp_knitwork_green_site_rna_tunnel_pure_split4000_batch007.csv

>  <fragmenstein_runtime>  (209) 
2.753724

>  <tags>  (209) 
['Fragmenstein placed']

>  <original ID>  (209) 
FIVYWUXLUXTLFU-CQSZACIVSA-N

>  <fragmenstein_error>  (209) 
None

>  <original SMILES>  (209) 
Cn1ccc(C[C@@H](N)c2coc3ccccc23)c1

>  <inchikey>  (209) 
FIVYWUXLUXTLFU-CQSZACIVSA-N

>  <SLURM_JOB_NAME>  (209) 
BulkDock.place:Flavi_NS5_RdRp:RdRp_knitwork_green_site_rna_tunnel_pure_split4000_batch007

>  <scratch_subdir>  (209) 
/opt/xchem-fragalysis-2/maxwin/BulkDock/SCRATCH/217078/C37680-P217

>  <alias>  (209) 
None

>  <SLURM_JOB_ID>  (209) 
217078

>  <exports>  (209) 
['/opt/xchem-fragalysis-2/maxwin/BulkDock/OUTPUTS/RdRp_knitwork_green_site_rna_tunnel_pure_split4000_batch007_217078.sdf']

$$$$
102181
     RDKit          3D

 22 24  0  0  0  0  0  0  0  0999 V2000
  -23.5299  -25.1066  -20.5453 O   0  0  0  0  0  0  0  0  0  0  0  0
  -23.9230  -25.8119  -19.7146 C   0  0  0  0  0  0  0  0  0  0  0  0
  -23.1851  -26.4446  -18.6065 C   0  0  0  0  0  0  0  0  0  0  0  0
  -23.2640  -28.2623  -19.3698 S   0  0  0  0  0  0  0  0  0  0  0  0
  -24.8777  -29.1387  -18.7574 C   0  0  0  0  0  0  0  0  0  0  0  0
  -25.4310  -29.4713  -17.3704 C   0  0  0  0  0  0  0  0  0  0  0  0
  -25.0390  -30.6651  -16.7532 C   0  0  0  0  0  0  0  0  0  0  0  0
  -25.8107  -31.1958  -15.7188 C   0  0  0  0  0  0  0  0  0  0  0  0
  -26.9781  -30.5587  -15.3330 C   0  0  0  0  0  0  0  0  0  0  0  0
  -27.3042  -29.3875  -15.9783 C   0  0  0  0  0  0  0  0  0  0  0  0
  -26.5495  -28.8199  -16.9563 N   0  0  0  0  0  0  0  0  0  0  0  0
  -25.3098  -26.4303  -19.5103 N   0  0  0  0  0  0  0  0  0  0  0  0
  -26.4451  -26.3888  -20.3138 C   0  0  1  0  0  0  0  0  0  0  0  0
  -26.0059  -27.0150  -21.6687 C   0  0  0  0  0  0  0  0  0  0  0  0
  -26.3217  -28.4166  -21.8590 N   0  0  0  0  0  0  0  0  0  0  0  0
  -27.3155  -29.0586  -21.1474 C   0  0  0  0  0  0  0  0  0  0  0  0
  -27.5606  -30.4053  -21.4336 C   0  0  0  0  0  0  0  0  0  0  0  0
  -28.3562  -31.2000  -20.6097 C   0  0  0  0  0  0  0  0  0  0  0  0
  -28.9128  -30.6584  -19.4657 C   0  0  0  0  0  0  0  0  0  0  0  0
  -28.6703  -29.3257  -19.1643 C   0  0  0  0  0  0  0  0  0  0  0  0
  -27.8860  -28.5101  -20.0009 C   0  0  0  0  0  0  0  0  0  0  0  0
  -27.6151  -27.0828  -19.6023 C   0  0  0  0  0  0  0  0  0  0  0  0
  1  2  2  0
  2  3  1  0
  3  4  1  0
  4  5  1  0
  5  6  1  0
  6  7  2  0
  7  8  1  0
  8  9  2  0
  9 10  1  0
 10 11  2  0
  2 12  1  0
 13 12  1  1
 13 14  1  0
 14 15  1  0
 15 16  1  0
 16 17  2  0
 17 18  1  0
 18 19  2  0
 19 20  1  0
 20 21  2  0
 21 22  1  0
 11  6  1  0
 22 13  1  0
 21 16  1  0
M  END
>  <HIPPO Pose ID>  (210) 
102181

>  <fragmenstein_outcome>  (210) 
acceptable

>  <energy_score>  (210) 
50.848388

>  <distance_score>  (210) 
1.684555

>  <fragmenstein_mode>  (210) 
expansion

>  <HIPPO Compound ID>  (210) 
34717

>  <name>  (210) 
WBVRJIOZKFMTSS-OAHLLOKOSA-N

>  <ref_pdb>  (210) 
z0364a

>  <ref_mols>  (210) 
z0215a,z0364a,z0637a

>  <csv_name>  (210) 
RdRp_knitwork_green_site_rna_tunnel_pure_split4000_batch011.csv

>  <fragmenstein_runtime>  (210) 
9.067224

>  <tags>  (210) 
['Fragmenstein placed']

>  <original ID>  (210) 
WBVRJIOZKFMTSS-OAHLLOKOSA-N

>  <fragmenstein_error>  (210) 
None

>  <original SMILES>  (210) 
O=C(CSCc1ccccn1)N[C@H]1CNc2ccccc2C1

>  <inchikey>  (210) 
WBVRJIOZKFMTSS-OAHLLOKOSA-N

>  <SLURM_JOB_NAME>  (210) 
BulkDock.place:Flavi_NS5_RdRp:RdRp_knitwork_green_site_rna_tunnel_pure_split4000_batch011

>  <scratch_subdir>  (210) 
/opt/xchem-fragalysis-2/maxwin/BulkDock/SCRATCH/217082/C34717-P118

>  <alias>  (210) 
None

>  <SLURM_JOB_ID>  (210) 
217082

>  <exports>  (210) 
['/opt/xchem-fragalysis-2/maxwin/BulkDock/OUTPUTS/RdRp_knitwork_green_site_rna_tunnel_pure_split4000_batch011_217082.sdf']

$$$$
102196
     RDKit          3D

 23 25  0  0  0  0  0  0  0  0999 V2000
  -26.5163  -37.4025  -22.3643 C   0  0  0  0  0  0  0  0  0  0  0  0
  -26.2016  -36.0035  -22.8939 C   0  0  0  0  0  0  0  0  0  0  0  0
  -25.2556  -35.1917  -22.1018 N   0  0  0  0  0  0  0  0  0  0  0  0
  -25.8384  -34.8085  -20.8049 C   0  0  0  0  0  0  0  0  0  0  0  0
  -25.2970  -33.5481  -20.1973 C   0  0  0  0  0  0  0  0  0  0  0  0
  -25.3857  -32.2656  -20.7057 C   0  0  0  0  0  0  0  0  0  0  0  0
  -24.8191  -31.3967  -19.8159 N   0  0  0  0  0  0  0  0  0  0  0  0
  -24.3257  -32.0836  -18.7306 C   0  0  0  0  0  0  0  0  0  0  0  0
  -23.6081  -31.4790  -17.6324 C   0  0  0  0  0  0  0  0  0  0  0  0
  -23.1540  -32.0653  -16.6601 O   0  0  0  0  0  0  0  0  0  0  0  0
  -23.5062  -30.1311  -17.8447 O   0  0  0  0  0  0  0  0  0  0  0  0
  -22.7685  -29.4470  -16.8287 C   0  0  0  0  0  0  0  0  0  0  0  0
  -24.6450  -33.4171  -18.9346 C   0  0  0  0  0  0  0  0  0  0  0  0
  -23.9735  -35.9172  -21.9586 C   0  0  0  0  0  0  0  0  0  0  0  0
  -22.8413  -34.9985  -21.6977 C   0  0  0  0  0  0  0  0  0  0  0  0
  -22.5652  -33.7056  -22.0919 C   0  0  0  0  0  0  0  0  0  0  0  0
  -21.3846  -33.3238  -21.4156 C   0  0  0  0  0  0  0  0  0  0  0  0
  -20.6216  -32.1490  -21.3158 C   0  0  0  0  0  0  0  0  0  0  0  0
  -19.4581  -32.1730  -20.5358 C   0  0  0  0  0  0  0  0  0  0  0  0
  -19.0574  -33.3375  -19.8727 C   0  0  0  0  0  0  0  0  0  0  0  0
  -19.8108  -34.5136  -19.9504 C   0  0  0  0  0  0  0  0  0  0  0  0
  -20.9659  -34.4543  -20.7228 C   0  0  0  0  0  0  0  0  0  0  0  0
  -21.8444  -35.4756  -20.9028 O   0  0  0  0  0  0  0  0  0  0  0  0
  1  2  1  0
  2  3  1  0
  3  4  1  0
  4  5  1  0
  5  6  2  0
  6  7  1  0
  7  8  1  0
  8  9  1  0
  9 10  2  0
  9 11  1  0
 11 12  1  0
  8 13  2  0
  3 14  1  0
 14 15  1  0
 15 16  2  0
 16 17  1  0
 17 18  2  0
 18 19  1  0
 19 20  2  0
 20 21  1  0
 21 22  2  0
 22 23  1  0
 13  5  1  0
 23 15  1  0
 22 17  1  0
M  END
>  <HIPPO Pose ID>  (211) 
102196

>  <fragmenstein_outcome>  (211) 
acceptable

>  <energy_score>  (211) 
-53.157758

>  <distance_score>  (211) 
0.993313

>  <fragmenstein_mode>  (211) 
expansion

>  <HIPPO Compound ID>  (211) 
34228

>  <name>  (211) 
GSXWXICUGFADCV-UHFFFAOYSA-N

>  <ref_pdb>  (211) 
3vws-b

>  <ref_mols>  (211) 
d0472b,3vws-b

>  <csv_name>  (211) 
RdRp_knitwork_green_site_rna_tunnel_pure_split4000_batch007.csv

>  <fragmenstein_runtime>  (211) 
5.982577

>  <tags>  (211) 
['Fragmenstein placed']

>  <original ID>  (211) 
GSXWXICUGFADCV-UHFFFAOYSA-N

>  <fragmenstein_error>  (211) 
None

>  <original SMILES>  (211) 
CCN(Cc1c[nH]c(C(=O)OC)c1)Cc1cc2ccccc2o1

>  <inchikey>  (211) 
GSXWXICUGFADCV-UHFFFAOYSA-N

>  <SLURM_JOB_NAME>  (211) 
BulkDock.place:Flavi_NS5_RdRp:RdRp_knitwork_green_site_rna_tunnel_pure_split4000_batch007

>  <scratch_subdir>  (211) 
/opt/xchem-fragalysis-2/maxwin/BulkDock/SCRATCH/217078/C34228-P217

>  <alias>  (211) 
None

>  <SLURM_JOB_ID>  (211) 
217078

>  <exports>  (211) 
['/opt/xchem-fragalysis-2/maxwin/BulkDock/OUTPUTS/RdRp_knitwork_green_site_rna_tunnel_pure_split4000_batch007_217078.sdf']

$$$$
102343
     RDKit          3D

 22 24  0  0  0  0  0  0  0  0999 V2000
  -23.5275  -32.3358  -24.5725 O   0  0  0  0  0  0  0  0  0  0  0  0
  -23.8933  -33.0768  -23.6712 C   0  0  0  0  0  0  0  0  0  0  0  0
  -23.5052  -34.5274  -23.5821 C   0  0  0  0  0  0  0  0  0  0  0  0
  -22.7316  -34.8260  -22.3387 C   0  0  0  0  0  0  0  0  0  0  0  0
  -22.8542  -35.9653  -21.5690 C   0  0  0  0  0  0  0  0  0  0  0  0
  -21.9861  -35.9500  -20.5288 O   0  0  0  0  0  0  0  0  0  0  0  0
  -21.2975  -34.7794  -20.6000 C   0  0  0  0  0  0  0  0  0  0  0  0
  -20.2967  -34.3804  -19.7159 C   0  0  0  0  0  0  0  0  0  0  0  0
  -19.7031  -33.1385  -19.9582 C   0  0  0  0  0  0  0  0  0  0  0  0
  -20.1017  -32.3520  -21.0393 C   0  0  0  0  0  0  0  0  0  0  0  0
  -21.0925  -32.7929  -21.9288 C   0  0  0  0  0  0  0  0  0  0  0  0
  -21.7151  -34.0377  -21.6996 C   0  0  0  0  0  0  0  0  0  0  0  0
  -24.6295  -32.7256  -22.5830 O   0  0  0  0  0  0  0  0  0  0  0  0
  -24.5386  -31.3370  -22.2342 C   0  0  0  0  0  0  0  0  0  0  0  0
  -25.4870  -31.0737  -21.0705 C   0  0  0  0  0  0  0  0  0  0  0  0
  -27.1474  -30.7171  -21.7312 S   0  0  0  0  0  0  0  0  0  0  0  0
  -28.1525  -31.4636  -20.4371 C   0  0  0  0  0  0  0  0  0  0  0  0
  -28.1218  -30.7341  -19.1363 C   0  0  0  0  0  0  0  0  0  0  0  0
  -27.0422  -30.4954  -18.4177 N   0  0  0  0  0  0  0  0  0  0  0  0
  -27.3968  -29.8759  -17.2387 C   0  0  0  0  0  0  0  0  0  0  0  0
  -28.7433  -29.6474  -17.0662 C   0  0  0  0  0  0  0  0  0  0  0  0
  -29.6045  -30.2408  -18.4176 S   0  0  0  0  0  0  0  0  0  0  0  0
  1  2  2  0
  2  3  1  0
  3  4  1  0
  4  5  2  0
  5  6  1  0
  6  7  1  0
  7  8  2  0
  8  9  1  0
  9 10  2  0
 10 11  1  0
 11 12  2  0
  2 13  1  0
 13 14  1  0
 14 15  1  0
 15 16  1  0
 16 17  1  0
 17 18  1  0
 18 19  2  0
 19 20  1  0
 20 21  2  0
 21 22  1  0
 12  4  1  0
 22 18  1  0
 12  7  1  0
M  END
>  <HIPPO Pose ID>  (212) 
102343

>  <fragmenstein_outcome>  (212) 
acceptable

>  <energy_score>  (212) 
-155.751959

>  <distance_score>  (212) 
0.894171

>  <fragmenstein_mode>  (212) 
expansion

>  <HIPPO Compound ID>  (212) 
42942

>  <name>  (212) 
NGKGLLNCRUUGAX-UHFFFAOYSA-N

>  <ref_pdb>  (212) 
z0384a

>  <ref_mols>  (212) 
z0384a,3vws-b

>  <csv_name>  (212) 
RdRp_knitwork_green_site_rna_tunnel_pure_split4000_batch000.csv

>  <fragmenstein_runtime>  (212) 
3.707495

>  <tags>  (212) 
['Fragmenstein placed']

>  <original ID>  (212) 
NGKGLLNCRUUGAX-UHFFFAOYSA-N

>  <fragmenstein_error>  (212) 
None

>  <original SMILES>  (212) 
O=C(Cc1coc2ccccc12)OCCSCc1nccs1

>  <inchikey>  (212) 
NGKGLLNCRUUGAX-UHFFFAOYSA-N

>  <SLURM_JOB_NAME>  (212) 
BulkDock.place:Flavi_NS5_RdRp:RdRp_knitwork_green_site_rna_tunnel_pure_split4000_batch000

>  <scratch_subdir>  (212) 
/opt/xchem-fragalysis-2/maxwin/BulkDock/SCRATCH/217071/C42942-P120

>  <alias>  (212) 
None

>  <SLURM_JOB_ID>  (212) 
217071

>  <exports>  (212) 
['/opt/xchem-fragalysis-2/maxwin/BulkDock/OUTPUTS/RdRp_knitwork_green_site_rna_tunnel_pure_split4000_batch000_217071.sdf']

$$$$
102358
     RDKit          3D

 23 25  0  0  0  0  0  0  0  0999 V2000
  -18.3034  -32.3855  -19.1958 C   0  0  0  0  0  0  0  0  0  0  0  0
  -19.4848  -32.8467  -20.0004 C   0  0  0  0  0  0  0  0  0  0  0  0
  -20.0928  -31.9626  -20.9038 C   0  0  0  0  0  0  0  0  0  0  0  0
  -21.1830  -32.3537  -21.6946 C   0  0  0  0  0  0  0  0  0  0  0  0
  -21.6769  -33.6635  -21.5642 C   0  0  0  0  0  0  0  0  0  0  0  0
  -22.7416  -34.4189  -22.1418 C   0  0  0  0  0  0  0  0  0  0  0  0
  -23.7536  -33.9645  -23.1342 C   0  0  0  0  0  0  0  0  0  0  0  0
  -25.1574  -34.1206  -22.5933 C   0  0  0  0  0  0  0  0  0  0  0  0
  -25.9608  -34.8936  -23.1142 O   0  0  0  0  0  0  0  0  0  0  0  0
  -25.4814  -33.4482  -21.4623 O   0  0  0  0  0  0  0  0  0  0  0  0
  -24.8098  -32.2286  -21.0664 C   0  0  0  0  0  0  0  0  0  0  0  0
  -25.8360  -31.2829  -20.4486 C   0  0  0  0  0  0  0  0  0  0  0  0
  -27.0707  -30.8550  -21.7241 S   0  0  0  0  0  0  0  0  0  0  0  0
  -28.1995  -29.7506  -20.8377 C   0  0  0  0  0  0  0  0  0  0  0  0
  -28.3512  -29.9892  -19.3740 C   0  0  0  0  0  0  0  0  0  0  0  0
  -27.4652  -29.6398  -18.4594 N   0  0  0  0  0  0  0  0  0  0  0  0
  -27.9507  -29.9400  -17.2037 C   0  0  0  0  0  0  0  0  0  0  0  0
  -29.2095  -30.4955  -17.1722 C   0  0  0  0  0  0  0  0  0  0  0  0
  -29.7963  -30.6887  -18.7676 S   0  0  0  0  0  0  0  0  0  0  0  0
  -22.6694  -35.6720  -21.5634 C   0  0  0  0  0  0  0  0  0  0  0  0
  -21.6572  -35.7349  -20.6646 O   0  0  0  0  0  0  0  0  0  0  0  0
  -21.0586  -34.5126  -20.6551 C   0  0  0  0  0  0  0  0  0  0  0  0
  -19.9635  -34.1589  -19.8686 C   0  0  0  0  0  0  0  0  0  0  0  0
  1  2  1  0
  2  3  2  0
  3  4  1  0
  4  5  2  0
  5  6  1  0
  6  7  1  0
  7  8  1  0
  8  9  2  0
  8 10  1  0
 10 11  1  0
 11 12  1  0
 12 13  1  0
 13 14  1  0
 14 15  1  0
 15 16  2  0
 16 17  1  0
 17 18  2  0
 18 19  1  0
  6 20  2  0
 20 21  1  0
 21 22  1  0
 22 23  2  0
 23  2  1  0
 22  5  1  0
 19 15  1  0
M  END
>  <HIPPO Pose ID>  (213) 
102358

>  <fragmenstein_outcome>  (213) 
acceptable

>  <energy_score>  (213) 
-82.705273

>  <distance_score>  (213) 
0.871648

>  <fragmenstein_mode>  (213) 
expansion

>  <HIPPO Compound ID>  (213) 
42953

>  <name>  (213) 
DJEDTHBYXZDUIZ-UHFFFAOYSA-N

>  <ref_pdb>  (213) 
z0384a

>  <ref_mols>  (213) 
z0384a,3vws-b

>  <csv_name>  (213) 
RdRp_knitwork_green_site_rna_tunnel_pure_split4000_batch000.csv

>  <fragmenstein_runtime>  (213) 
4.374993

>  <tags>  (213) 
['Fragmenstein placed']

>  <original ID>  (213) 
DJEDTHBYXZDUIZ-UHFFFAOYSA-N

>  <fragmenstein_error>  (213) 
None

>  <original SMILES>  (213) 
Cc1ccc2c(CC(=O)OCCSCc3nccs3)coc2c1

>  <inchikey>  (213) 
DJEDTHBYXZDUIZ-UHFFFAOYSA-N

>  <SLURM_JOB_NAME>  (213) 
BulkDock.place:Flavi_NS5_RdRp:RdRp_knitwork_green_site_rna_tunnel_pure_split4000_batch000

>  <scratch_subdir>  (213) 
/opt/xchem-fragalysis-2/maxwin/BulkDock/SCRATCH/217071/C42953-P120

>  <alias>  (213) 
None

>  <SLURM_JOB_ID>  (213) 
217071

>  <exports>  (213) 
['/opt/xchem-fragalysis-2/maxwin/BulkDock/OUTPUTS/RdRp_knitwork_green_site_rna_tunnel_pure_split4000_batch000_217071.sdf']

$$$$
102563
     RDKit          3D

 21 23  0  0  0  0  0  0  0  0999 V2000
  -24.1941  -36.2552  -22.0839 C   0  0  0  0  0  0  0  0  0  0  0  0
  -23.1861  -35.2375  -21.7221 C   0  0  0  0  0  0  0  0  0  0  0  0
  -22.1792  -35.6747  -20.9121 O   0  0  0  0  0  0  0  0  0  0  0  0
  -21.3500  -34.6185  -20.6936 C   0  0  0  0  0  0  0  0  0  0  0  0
  -20.1997  -34.6385  -19.9052 C   0  0  0  0  0  0  0  0  0  0  0  0
  -19.4605  -33.4521  -19.8415 C   0  0  0  0  0  0  0  0  0  0  0  0
  -19.8762  -32.3081  -20.5243 C   0  0  0  0  0  0  0  0  0  0  0  0
  -21.0409  -32.3196  -21.3029 C   0  0  0  0  0  0  0  0  0  0  0  0
  -21.7991  -33.5044  -21.3872 C   0  0  0  0  0  0  0  0  0  0  0  0
  -23.0173  -33.8966  -22.0319 C   0  0  0  0  0  0  0  0  0  0  0  0
  -23.8744  -33.0242  -22.8873 C   0  0  0  0  0  0  0  0  0  0  0  0
  -25.1137  -32.5971  -22.2824 O   0  0  0  0  0  0  0  0  0  0  0  0
  -24.9816  -31.5739  -21.3965 C   0  0  0  0  0  0  0  0  0  0  0  0
  -23.9411  -31.2294  -20.8586 O   0  0  0  0  0  0  0  0  0  0  0  0
  -26.2704  -30.8243  -21.2144 C   0  0  0  0  0  0  0  0  0  0  0  0
  -27.3529  -31.6397  -20.5407 C   0  0  0  0  0  0  0  0  0  0  0  0
  -27.9283  -30.9218  -19.3582 C   0  0  0  0  0  0  0  0  0  0  0  0
  -27.2169  -30.5416  -18.3177 N   0  0  0  0  0  0  0  0  0  0  0  0
  -28.0419  -29.9777  -17.3675 C   0  0  0  0  0  0  0  0  0  0  0  0
  -29.3776  -29.9327  -17.6966 C   0  0  0  0  0  0  0  0  0  0  0  0
  -29.6091  -30.5771  -19.2680 S   0  0  0  0  0  0  0  0  0  0  0  0
  1  2  1  0
  2  3  1  0
  3  4  1  0
  4  5  2  0
  5  6  1  0
  6  7  2  0
  7  8  1  0
  8  9  2  0
  9 10  1  0
 10 11  1  0
 11 12  1  0
 12 13  1  0
 13 14  2  0
 13 15  1  0
 15 16  1  0
 16 17  1  0
 17 18  2  0
 18 19  1  0
 19 20  2  0
 20 21  1  0
 10  2  2  0
 21 17  1  0
  9  4  1  0
M  END
>  <HIPPO Pose ID>  (214) 
102563

>  <fragmenstein_outcome>  (214) 
acceptable

>  <energy_score>  (214) 
-60.929958

>  <distance_score>  (214) 
0.636849

>  <fragmenstein_mode>  (214) 
expansion

>  <HIPPO Compound ID>  (214) 
43398

>  <name>  (214) 
QWPVZHSVSIMPSB-UHFFFAOYSA-N

>  <ref_pdb>  (214) 
z0384a

>  <ref_mols>  (214) 
z0384a,3vws-b

>  <csv_name>  (214) 
RdRp_knitwork_green_site_rna_tunnel_pure_split4000_batch000.csv

>  <fragmenstein_runtime>  (214) 
2.958568

>  <tags>  (214) 
['Fragmenstein placed']

>  <original ID>  (214) 
QWPVZHSVSIMPSB-UHFFFAOYSA-N

>  <fragmenstein_error>  (214) 
None

>  <original SMILES>  (214) 
Cc1oc2ccccc2c1COC(=O)CCc1nccs1

>  <inchikey>  (214) 
QWPVZHSVSIMPSB-UHFFFAOYSA-N

>  <SLURM_JOB_NAME>  (214) 
BulkDock.place:Flavi_NS5_RdRp:RdRp_knitwork_green_site_rna_tunnel_pure_split4000_batch000

>  <scratch_subdir>  (214) 
/opt/xchem-fragalysis-2/maxwin/BulkDock/SCRATCH/217071/C43398-P120

>  <alias>  (214) 
None

>  <SLURM_JOB_ID>  (214) 
217071

>  <exports>  (214) 
['/opt/xchem-fragalysis-2/maxwin/BulkDock/OUTPUTS/RdRp_knitwork_green_site_rna_tunnel_pure_split4000_batch000_217071.sdf']

$$$$
102751
     RDKit          3D

 21 23  0  0  0  0  0  0  0  0999 V2000
  -25.5244  -29.4260  -19.7004 C   0  0  0  0  0  0  0  0  0  0  0  0
  -25.6152  -30.8535  -19.5040 N   0  0  0  0  0  0  0  0  0  0  0  0
  -26.6776  -31.6296  -19.8681 C   0  0  0  0  0  0  0  0  0  0  0  0
  -26.3398  -32.9422  -19.6271 C   0  0  0  0  0  0  0  0  0  0  0  0
  -25.0470  -32.9672  -19.0353 C   0  0  0  0  0  0  0  0  0  0  0  0
  -24.2234  -34.1044  -18.6081 C   0  0  0  0  0  0  0  0  0  0  0  0
  -23.2347  -33.9267  -17.8946 O   0  0  0  0  0  0  0  0  0  0  0  0
  -24.6173  -35.5329  -19.0402 C   0  0  0  0  0  0  0  0  0  0  0  0
  -25.2018  -35.8048  -20.3230 O   0  0  0  0  0  0  0  0  0  0  0  0
  -24.7730  -35.2344  -21.4942 C   0  0  0  0  0  0  0  0  0  0  0  0
  -25.5449  -35.1469  -22.4446 O   0  0  0  0  0  0  0  0  0  0  0  0
  -23.4425  -34.6793  -21.4760 C   0  0  0  0  0  0  0  0  0  0  0  0
  -22.9831  -33.4763  -21.9782 C   0  0  0  0  0  0  0  0  0  0  0  0
  -21.6789  -33.2938  -21.4544 C   0  0  0  0  0  0  0  0  0  0  0  0
  -20.7442  -32.2449  -21.4335 C   0  0  0  0  0  0  0  0  0  0  0  0
  -19.5343  -32.4398  -20.7524 C   0  0  0  0  0  0  0  0  0  0  0  0
  -19.2438  -33.6578  -20.1297 C   0  0  0  0  0  0  0  0  0  0  0  0
  -20.1600  -34.7153  -20.1427 C   0  0  0  0  0  0  0  0  0  0  0  0
  -21.3665  -34.4768  -20.7950 C   0  0  0  0  0  0  0  0  0  0  0  0
  -22.4250  -35.3319  -20.8364 O   0  0  0  0  0  0  0  0  0  0  0  0
  -24.6459  -31.6420  -18.9517 C   0  0  0  0  0  0  0  0  0  0  0  0
  1  2  1  0
  2  3  1  0
  3  4  2  0
  4  5  1  0
  5  6  1  0
  6  7  2  0
  6  8  1  0
  8  9  1  0
  9 10  1  0
 10 11  2  0
 10 12  1  0
 12 13  2  0
 13 14  1  0
 14 15  2  0
 15 16  1  0
 16 17  2  0
 17 18  1  0
 18 19  2  0
 19 20  1  0
  5 21  2  0
 21  2  1  0
 20 12  1  0
 19 14  1  0
M  END
>  <HIPPO Pose ID>  (215) 
102751

>  <fragmenstein_outcome>  (215) 
acceptable

>  <energy_score>  (215) 
-27.125788

>  <distance_score>  (215) 
0.848771

>  <fragmenstein_mode>  (215) 
expansion

>  <HIPPO Compound ID>  (215) 
40015

>  <name>  (215) 
JUTQIMXHMYDMRY-UHFFFAOYSA-N

>  <ref_pdb>  (215) 
3vws-b

>  <ref_mols>  (215) 
d0472b,3vws-b

>  <csv_name>  (215) 
RdRp_knitwork_green_site_rna_tunnel_pure_split4000_batch007.csv

>  <fragmenstein_runtime>  (215) 
3.722633

>  <tags>  (215) 
['Fragmenstein placed']

>  <original ID>  (215) 
JUTQIMXHMYDMRY-UHFFFAOYSA-N

>  <fragmenstein_error>  (215) 
None

>  <original SMILES>  (215) 
Cn1ccc(C(=O)COC(=O)c2cc3ccccc3o2)c1

>  <inchikey>  (215) 
JUTQIMXHMYDMRY-UHFFFAOYSA-N

>  <SLURM_JOB_NAME>  (215) 
BulkDock.place:Flavi_NS5_RdRp:RdRp_knitwork_green_site_rna_tunnel_pure_split4000_batch007

>  <scratch_subdir>  (215) 
/opt/xchem-fragalysis-2/maxwin/BulkDock/SCRATCH/217078/C40015-P217

>  <alias>  (215) 
None

>  <SLURM_JOB_ID>  (215) 
217078

>  <exports>  (215) 
['/opt/xchem-fragalysis-2/maxwin/BulkDock/OUTPUTS/RdRp_knitwork_green_site_rna_tunnel_pure_split4000_batch007_217078.sdf']

$$$$
102905
     RDKit          3D

 20 22  0  0  0  0  0  0  0  0999 V2000
  -19.2889  -32.2947  -20.5125 C   0  0  0  0  0  0  0  0  0  0  0  0
  -19.1923  -33.3391  -19.5891 C   0  0  0  0  0  0  0  0  0  0  0  0
  -20.0815  -34.4182  -19.6165 C   0  0  0  0  0  0  0  0  0  0  0  0
  -21.0523  -34.3897  -20.6120 C   0  0  0  0  0  0  0  0  0  0  0  0
  -22.0776  -35.2769  -20.7474 O   0  0  0  0  0  0  0  0  0  0  0  0
  -22.8382  -34.8211  -21.7822 C   0  0  0  0  0  0  0  0  0  0  0  0
  -24.2286  -35.3258  -21.8820 C   0  0  0  0  0  0  0  0  0  0  0  0
  -25.1390  -34.4958  -21.0559 N   0  0  0  0  0  0  0  0  0  0  0  0
  -25.0371  -33.0472  -21.3446 C   0  0  0  0  0  0  0  0  0  0  0  0
  -26.2429  -32.3183  -20.7644 C   0  0  0  0  0  0  0  0  0  0  0  0
  -26.2668  -30.8669  -21.2265 C   0  0  0  0  0  0  0  0  0  0  0  0
  -27.9468  -30.1867  -21.1449 S   0  0  0  0  0  0  0  0  0  0  0  0
  -28.2073  -30.1436  -19.4231 C   0  0  0  0  0  0  0  0  0  0  0  0
  -27.2334  -29.9075  -18.5725 N   0  0  0  0  0  0  0  0  0  0  0  0
  -27.7431  -29.9023  -17.2888 C   0  0  0  0  0  0  0  0  0  0  0  0
  -29.0973  -30.1340  -17.1840 C   0  0  0  0  0  0  0  0  0  0  0  0
  -29.7547  -30.4010  -18.7427 S   0  0  0  0  0  0  0  0  0  0  0  0
  -22.2124  -33.7707  -22.4228 C   0  0  0  0  0  0  0  0  0  0  0  0
  -21.1318  -33.4050  -21.5898 C   0  0  0  0  0  0  0  0  0  0  0  0
  -20.2471  -32.3186  -21.5330 C   0  0  0  0  0  0  0  0  0  0  0  0
  1  2  2  0
  2  3  1  0
  3  4  2  0
  4  5  1  0
  5  6  1  0
  6  7  1  0
  7  8  1  0
  8  9  1  0
  9 10  1  0
 10 11  1  0
 11 12  1  0
 12 13  1  0
 13 14  2  0
 14 15  1  0
 15 16  2  0
 16 17  1  0
  6 18  2  0
 18 19  1  0
 19 20  2  0
 20  1  1  0
 19  4  1  0
 17 13  1  0
M  END
>  <HIPPO Pose ID>  (216) 
102905

>  <fragmenstein_outcome>  (216) 
acceptable

>  <energy_score>  (216) 
-72.65385

>  <distance_score>  (216) 
0.894032

>  <fragmenstein_mode>  (216) 
expansion

>  <HIPPO Compound ID>  (216) 
45718

>  <name>  (216) 
VPWKZOLZXGJWHF-UHFFFAOYSA-N

>  <ref_pdb>  (216) 
z0384a

>  <ref_mols>  (216) 
z0384a,3vws-b

>  <csv_name>  (216) 
RdRp_knitwork_green_site_rna_tunnel_pure_split4000_batch000.csv

>  <fragmenstein_runtime>  (216) 
2.402619

>  <tags>  (216) 
['Fragmenstein placed']

>  <original ID>  (216) 
VPWKZOLZXGJWHF-UHFFFAOYSA-N

>  <fragmenstein_error>  (216) 
None

>  <original SMILES>  (216) 
c1ccc2oc(CNCCCSc3nccs3)cc2c1

>  <inchikey>  (216) 
VPWKZOLZXGJWHF-UHFFFAOYSA-N

>  <SLURM_JOB_NAME>  (216) 
BulkDock.place:Flavi_NS5_RdRp:RdRp_knitwork_green_site_rna_tunnel_pure_split4000_batch000

>  <scratch_subdir>  (216) 
/opt/xchem-fragalysis-2/maxwin/BulkDock/SCRATCH/217071/C45718-P120

>  <alias>  (216) 
None

>  <SLURM_JOB_ID>  (216) 
217071

>  <exports>  (216) 
['/opt/xchem-fragalysis-2/maxwin/BulkDock/OUTPUTS/RdRp_knitwork_green_site_rna_tunnel_pure_split4000_batch000_217071.sdf']

$$$$
102919
     RDKit          3D

 21 23  0  0  0  0  0  0  0  0999 V2000
  -18.7946  -30.9095  -20.8633 F   0  0  0  0  0  0  0  0  0  0  0  0
  -19.5372  -32.0243  -20.8384 C   0  0  0  0  0  0  0  0  0  0  0  0
  -19.3405  -32.9552  -19.8195 C   0  0  0  0  0  0  0  0  0  0  0  0
  -20.1348  -34.1042  -19.7365 C   0  0  0  0  0  0  0  0  0  0  0  0
  -21.1121  -34.2436  -20.7187 C   0  0  0  0  0  0  0  0  0  0  0  0
  -22.0846  -35.1978  -20.7443 O   0  0  0  0  0  0  0  0  0  0  0  0
  -22.8925  -34.8843  -21.7969 C   0  0  0  0  0  0  0  0  0  0  0  0
  -24.2762  -35.4170  -21.7810 C   0  0  0  0  0  0  0  0  0  0  0  0
  -25.1525  -34.5470  -20.9539 N   0  0  0  0  0  0  0  0  0  0  0  0
  -25.0580  -33.1096  -21.3018 C   0  0  0  0  0  0  0  0  0  0  0  0
  -26.2417  -32.3475  -20.7177 C   0  0  0  0  0  0  0  0  0  0  0  0
  -26.2544  -30.9071  -21.2178 C   0  0  0  0  0  0  0  0  0  0  0  0
  -27.9278  -30.2083  -21.1524 S   0  0  0  0  0  0  0  0  0  0  0  0
  -28.1992  -30.1493  -19.4326 C   0  0  0  0  0  0  0  0  0  0  0  0
  -27.2298  -29.9088  -18.5780 N   0  0  0  0  0  0  0  0  0  0  0  0
  -27.7472  -29.8936  -17.2974 C   0  0  0  0  0  0  0  0  0  0  0  0
  -29.1024  -30.1222  -17.1989 C   0  0  0  0  0  0  0  0  0  0  0  0
  -29.7512  -30.3985  -18.7597 S   0  0  0  0  0  0  0  0  0  0  0  0
  -22.3302  -33.8857  -22.5654 C   0  0  0  0  0  0  0  0  0  0  0  0
  -21.2701  -33.3685  -21.7887 C   0  0  0  0  0  0  0  0  0  0  0  0
  -20.4767  -32.2172  -21.8490 C   0  0  0  0  0  0  0  0  0  0  0  0
  1  2  1  0
  2  3  2  0
  3  4  1  0
  4  5  2  0
  5  6  1  0
  6  7  1  0
  7  8  1  0
  8  9  1  0
  9 10  1  0
 10 11  1  0
 11 12  1  0
 12 13  1  0
 13 14  1  0
 14 15  2  0
 15 16  1  0
 16 17  2  0
 17 18  1  0
  7 19  2  0
 19 20  1  0
 20 21  2  0
 21  2  1  0
 20  5  1  0
 18 14  1  0
M  END
>  <HIPPO Pose ID>  (217) 
102919

>  <fragmenstein_outcome>  (217) 
acceptable

>  <energy_score>  (217) 
-83.117184

>  <distance_score>  (217) 
0.905487

>  <fragmenstein_mode>  (217) 
expansion

>  <HIPPO Compound ID>  (217) 
45719

>  <name>  (217) 
JPWSYXWJMQTCHI-UHFFFAOYSA-N

>  <ref_pdb>  (217) 
z0384a

>  <ref_mols>  (217) 
z0384a,3vws-b

>  <csv_name>  (217) 
RdRp_knitwork_green_site_rna_tunnel_pure_split4000_batch000.csv

>  <fragmenstein_runtime>  (217) 
2.204268

>  <tags>  (217) 
['Fragmenstein placed']

>  <original ID>  (217) 
JPWSYXWJMQTCHI-UHFFFAOYSA-N

>  <fragmenstein_error>  (217) 
None

>  <original SMILES>  (217) 
Fc1ccc2oc(CNCCCSc3nccs3)cc2c1

>  <inchikey>  (217) 
JPWSYXWJMQTCHI-UHFFFAOYSA-N

>  <SLURM_JOB_NAME>  (217) 
BulkDock.place:Flavi_NS5_RdRp:RdRp_knitwork_green_site_rna_tunnel_pure_split4000_batch000

>  <scratch_subdir>  (217) 
/opt/xchem-fragalysis-2/maxwin/BulkDock/SCRATCH/217071/C45719-P120

>  <alias>  (217) 
None

>  <SLURM_JOB_ID>  (217) 
217071

>  <exports>  (217) 
['/opt/xchem-fragalysis-2/maxwin/BulkDock/OUTPUTS/RdRp_knitwork_green_site_rna_tunnel_pure_split4000_batch000_217071.sdf']

$$$$
103145
     RDKit          3D

 16 18  0  0  0  0  0  0  0  0999 V2000
  -30.6641  -31.5956  -16.9502 N   0  0  0  0  0  0  0  0  0  0  0  0
  -30.0782  -31.0634  -17.8003 C   0  0  0  0  0  0  0  0  0  0  0  0
  -29.2740  -30.4221  -18.7950 C   0  0  0  0  0  0  0  0  0  0  0  0
  -29.7843  -30.1475  -20.0666 C   0  0  0  0  0  0  0  0  0  0  0  0
  -28.9527  -29.5677  -21.0215 C   0  0  0  0  0  0  0  0  0  0  0  0
  -27.6540  -29.2383  -20.6559 C   0  0  0  0  0  0  0  0  0  0  0  0
  -26.7366  -28.6613  -21.6261 C   0  0  0  0  0  0  0  0  0  0  0  0
  -26.0360  -27.4908  -21.3996 C   0  0  0  0  0  0  0  0  0  0  0  0
  -25.0794  -27.1071  -22.7766 S   0  0  0  0  0  0  0  0  0  0  0  0
  -25.6200  -28.5521  -23.5305 C   0  0  0  0  0  0  0  0  0  0  0  0
  -26.5146  -29.2535  -22.8637 N   0  0  0  0  0  0  0  0  0  0  0  0
  -27.1525  -29.4752  -19.4167 N   0  0  0  0  0  0  0  0  0  0  0  0
  -27.9408  -30.1009  -18.5004 C   0  0  0  0  0  0  0  0  0  0  0  0
  -27.2963  -30.5285  -17.1925 C   0  0  0  0  0  0  0  0  0  0  0  0
  -26.3073  -29.6457  -16.4786 C   0  0  0  0  0  0  0  0  0  0  0  0
  -27.6761  -29.8419  -15.8991 C   0  0  0  0  0  0  0  0  0  0  0  0
  1  2  3  0
  2  3  1  0
  3  4  2  0
  4  5  1  0
  5  6  2  0
  6  7  1  0
  7  8  2  0
  8  9  1  0
  9 10  1  0
 10 11  2  0
  6 12  1  0
 12 13  2  0
 13 14  1  0
 14 15  1  0
 15 16  1  0
 13  3  1  0
 16 14  1  0
 11  7  1  0
M  END
>  <HIPPO Pose ID>  (218) 
103145

>  <fragmenstein_outcome>  (218) 
acceptable

>  <energy_score>  (218) 
-63.114271

>  <distance_score>  (218) 
0.699348

>  <fragmenstein_mode>  (218) 
expansion

>  <HIPPO Compound ID>  (218) 
13699

>  <name>  (218) 
BOFHQGWPXCOGTN-UHFFFAOYSA-N

>  <ref_pdb>  (218) 
z0496a

>  <ref_mols>  (218) 
z0215a,z0496a

>  <csv_name>  (218) 
RdRp_knitwork_green_site_rna_tunnel_pure_split4000_batch016.csv

>  <fragmenstein_runtime>  (218) 
2.892536

>  <tags>  (218) 
['Fragmenstein placed']

>  <original ID>  (218) 
BOFHQGWPXCOGTN-UHFFFAOYSA-N

>  <fragmenstein_error>  (218) 
None

>  <original SMILES>  (218) 
N#Cc1ccc(-c2cscn2)nc1C1CC1

>  <inchikey>  (218) 
BOFHQGWPXCOGTN-UHFFFAOYSA-N

>  <SLURM_JOB_NAME>  (218) 
BulkDock.place:Flavi_NS5_RdRp:RdRp_knitwork_green_site_rna_tunnel_pure_split4000_batch016

>  <scratch_subdir>  (218) 
/opt/xchem-fragalysis-2/maxwin/BulkDock/SCRATCH/217087/C13699-P136

>  <alias>  (218) 
None

>  <SLURM_JOB_ID>  (218) 
217087

>  <exports>  (218) 
['/opt/xchem-fragalysis-2/maxwin/BulkDock/OUTPUTS/RdRp_knitwork_green_site_rna_tunnel_pure_split4000_batch016_217087.sdf']

$$$$
103562
     RDKit          3D

 15 17  0  0  0  0  0  0  0  0999 V2000
  -27.8431  -30.3512  -15.8373 C   0  0  0  0  0  0  0  0  0  0  0  0
  -26.7393  -29.7020  -16.3719 C   0  0  0  0  0  0  0  0  0  0  0  0
  -26.7227  -29.3653  -17.7261 C   0  0  0  0  0  0  0  0  0  0  0  0
  -27.8018  -29.6910  -18.5876 C   0  0  0  0  0  0  0  0  0  0  0  0
  -27.8835  -29.3890  -19.9678 C   0  0  0  0  0  0  0  0  0  0  0  0
  -26.9055  -28.5324  -20.6534 C   0  0  0  0  0  0  0  0  0  0  0  0
  -26.3411  -27.4450  -20.1504 N   0  0  0  0  0  0  0  0  0  0  0  0
  -25.6023  -26.8050  -21.1244 C   0  0  0  0  0  0  0  0  0  0  0  0
  -25.5131  -27.4630  -22.3298 C   0  0  0  0  0  0  0  0  0  0  0  0
  -26.4145  -28.9208  -22.2605 S   0  0  0  0  0  0  0  0  0  0  0  0
  -28.9184  -29.7719  -20.7686 N   0  0  0  0  0  0  0  0  0  0  0  0
  -29.9320  -30.4372  -20.1961 C   0  0  0  0  0  0  0  0  0  0  0  0
  -29.9621  -30.7584  -18.8547 C   0  0  0  0  0  0  0  0  0  0  0  0
  -28.8967  -30.3829  -18.0331 C   0  0  0  0  0  0  0  0  0  0  0  0
  -28.9138  -30.6901  -16.6626 C   0  0  0  0  0  0  0  0  0  0  0  0
  1  2  2  0
  2  3  1  0
  3  4  2  0
  4  5  1  0
  5  6  1  0
  6  7  2  0
  7  8  1  0
  8  9  2  0
  9 10  1  0
  5 11  2  0
 11 12  1  0
 12 13  2  0
 13 14  1  0
 14 15  2  0
 15  1  1  0
 14  4  1  0
 10  6  1  0
M  END
>  <HIPPO Pose ID>  (219) 
103562

>  <fragmenstein_outcome>  (219) 
acceptable

>  <energy_score>  (219) 
-58.072942

>  <distance_score>  (219) 
0.693014

>  <fragmenstein_mode>  (219) 
expansion

>  <HIPPO Compound ID>  (219) 
30341

>  <name>  (219) 
RYINUJYFPYCEFQ-UHFFFAOYSA-N

>  <ref_pdb>  (219) 
z0496a

>  <ref_mols>  (219) 
z0111a,z0496a

>  <csv_name>  (219) 
RdRp_knitwork_green_site_rna_tunnel_pure_split4000_batch002.csv

>  <fragmenstein_runtime>  (219) 
1.664581

>  <tags>  (219) 
['Fragmenstein placed']

>  <original ID>  (219) 
RYINUJYFPYCEFQ-UHFFFAOYSA-N

>  <fragmenstein_error>  (219) 
None

>  <original SMILES>  (219) 
c1ccc2c(-c3nccs3)nccc2c1

>  <inchikey>  (219) 
RYINUJYFPYCEFQ-UHFFFAOYSA-N

>  <SLURM_JOB_NAME>  (219) 
BulkDock.place:Flavi_NS5_RdRp:RdRp_knitwork_green_site_rna_tunnel_pure_split4000_batch002

>  <scratch_subdir>  (219) 
/opt/xchem-fragalysis-2/maxwin/BulkDock/SCRATCH/217073/C30341-P136

>  <alias>  (219) 
None

>  <SLURM_JOB_ID>  (219) 
217073

>  <exports>  (219) 
['/opt/xchem-fragalysis-2/maxwin/BulkDock/OUTPUTS/RdRp_knitwork_green_site_rna_tunnel_pure_split4000_batch002_217073.sdf']

$$$$
104204
     RDKit          3D

 13 14  0  0  0  0  0  0  0  0999 V2000
  -30.7957  -30.5777  -20.6391 C   0  0  0  0  0  0  0  0  0  0  0  0
  -29.3049  -30.3192  -20.8553 C   0  0  0  0  0  0  0  0  0  0  0  0
  -28.8919  -29.0243  -20.1764 C   0  0  1  0  0  0  0  0  0  0  0  0
  -29.0676  -29.1999  -18.7370 N   0  0  0  0  0  0  0  0  0  0  0  0
  -27.8851  -29.5055  -18.1047 C   0  0  0  0  0  0  0  0  0  0  0  0
  -27.7578  -29.8131  -16.9341 O   0  0  0  0  0  0  0  0  0  0  0  0
  -26.7967  -29.4148  -19.1315 C   0  0  0  0  0  0  0  0  0  0  0  0
  -27.4404  -28.5507  -20.2038 C   0  0  1  0  0  0  0  0  0  0  0  0
  -26.6830  -28.4479  -21.4820 C   0  0  0  0  0  0  0  0  0  0  0  0
  -25.8578  -27.3827  -21.8183 C   0  0  0  0  0  0  0  0  0  0  0  0
  -25.1481  -27.6263  -23.3580 S   0  0  0  0  0  0  0  0  0  0  0  0
  -25.9815  -29.1215  -23.4664 C   0  0  0  0  0  0  0  0  0  0  0  0
  -26.7312  -29.4518  -22.4317 N   0  0  0  0  0  0  0  0  0  0  0  0
  1  2  1  0
  3  2  1  6
  3  4  1  0
  4  5  1  0
  5  6  2  0
  5  7  1  0
  7  8  1  0
  8  9  1  6
  9 10  2  0
 10 11  1  0
 11 12  1  0
 12 13  2  0
  8  3  1  0
 13  9  1  0
M  END
>  <HIPPO Pose ID>  (220) 
104204

>  <fragmenstein_outcome>  (220) 
acceptable

>  <energy_score>  (220) 
-59.168415

>  <distance_score>  (220) 
0.896537

>  <fragmenstein_mode>  (220) 
expansion

>  <HIPPO Compound ID>  (220) 
36333

>  <name>  (220) 
SFKMEVZVYZRTGW-RNFRBKRXSA-N

>  <ref_pdb>  (220) 
z0496a

>  <ref_mols>  (220) 
z0496a,z1018a

>  <csv_name>  (220) 
RdRp_knitwork_green_site_rna_tunnel_pure_split4000_batch012.csv

>  <fragmenstein_runtime>  (220) 
1.910144

>  <tags>  (220) 
['Fragmenstein placed']

>  <original ID>  (220) 
SFKMEVZVYZRTGW-RNFRBKRXSA-N

>  <fragmenstein_error>  (220) 
None

>  <original SMILES>  (220) 
CC[C@H]1NC(=O)C[C@H]1c1cscn1

>  <inchikey>  (220) 
SFKMEVZVYZRTGW-RNFRBKRXSA-N

>  <SLURM_JOB_NAME>  (220) 
BulkDock.place:Flavi_NS5_RdRp:RdRp_knitwork_green_site_rna_tunnel_pure_split4000_batch012

>  <scratch_subdir>  (220) 
/opt/xchem-fragalysis-2/maxwin/BulkDock/SCRATCH/217083/C36333-P136

>  <alias>  (220) 
None

>  <SLURM_JOB_ID>  (220) 
217083

>  <exports>  (220) 
['/opt/xchem-fragalysis-2/maxwin/BulkDock/OUTPUTS/RdRp_knitwork_green_site_rna_tunnel_pure_split4000_batch012_217083.sdf']

$$$$
104225
     RDKit          3D

 14 15  0  0  0  0  0  0  0  0999 V2000
  -30.7831  -29.6748  -21.0018 C   0  0  0  0  0  0  0  0  0  0  0  0
  -29.5705  -30.5387  -21.2011 C   0  0  0  0  0  0  0  0  0  0  0  0
  -28.3804  -30.2063  -20.3276 C   0  0  2  0  0  0  0  0  0  0  0  0
  -28.7284  -30.1711  -18.9201 N   0  0  0  0  0  0  0  0  0  0  0  0
  -27.8302  -29.3995  -18.2072 C   0  0  0  0  0  0  0  0  0  0  0  0
  -27.8074  -29.2595  -16.9990 O   0  0  0  0  0  0  0  0  0  0  0  0
  -26.8330  -28.8812  -19.2160 C   0  0  2  0  0  0  0  0  0  0  0  0
  -26.0236  -27.6640  -18.8564 C   0  0  0  0  0  0  0  0  0  0  0  0
  -27.6483  -28.8588  -20.5169 C   0  0  1  0  0  0  0  0  0  0  0  0
  -26.7741  -28.6907  -21.7267 C   0  0  0  0  0  0  0  0  0  0  0  0
  -26.0150  -27.5651  -22.0249 C   0  0  0  0  0  0  0  0  0  0  0  0
  -25.1752  -27.7621  -23.5033 S   0  0  0  0  0  0  0  0  0  0  0  0
  -25.9113  -29.2995  -23.6680 C   0  0  0  0  0  0  0  0  0  0  0  0
  -26.6944  -29.6888  -22.6802 N   0  0  0  0  0  0  0  0  0  0  0  0
  1  2  1  0
  3  2  1  6
  3  4  1  0
  4  5  1  0
  5  6  2  0
  5  7  1  0
  7  8  1  1
  7  9  1  0
  9 10  1  6
 10 11  2  0
 11 12  1  0
 12 13  1  0
 13 14  2  0
  9  3  1  0
 14 10  1  0
M  END
>  <HIPPO Pose ID>  (221) 
104225

>  <fragmenstein_outcome>  (221) 
acceptable

>  <energy_score>  (221) 
-94.206804

>  <distance_score>  (221) 
0.950416

>  <fragmenstein_mode>  (221) 
expansion

>  <HIPPO Compound ID>  (221) 
36398

>  <name>  (221) 
UJSVUDMATMNHQF-BKPPORCPSA-N

>  <ref_pdb>  (221) 
z0496a

>  <ref_mols>  (221) 
z0496a,z1018a

>  <csv_name>  (221) 
RdRp_knitwork_green_site_rna_tunnel_pure_split4000_batch012.csv

>  <fragmenstein_runtime>  (221) 
2.011369

>  <tags>  (221) 
['Fragmenstein placed']

>  <original ID>  (221) 
UJSVUDMATMNHQF-BKPPORCPSA-N

>  <fragmenstein_error>  (221) 
None

>  <original SMILES>  (221) 
CC[C@@H]1NC(=O)[C@H](C)[C@H]1c1cscn1

>  <inchikey>  (221) 
UJSVUDMATMNHQF-BKPPORCPSA-N

>  <SLURM_JOB_NAME>  (221) 
BulkDock.place:Flavi_NS5_RdRp:RdRp_knitwork_green_site_rna_tunnel_pure_split4000_batch012

>  <scratch_subdir>  (221) 
/opt/xchem-fragalysis-2/maxwin/BulkDock/SCRATCH/217083/C36398-P136

>  <alias>  (221) 
None

>  <SLURM_JOB_ID>  (221) 
217083

>  <exports>  (221) 
['/opt/xchem-fragalysis-2/maxwin/BulkDock/OUTPUTS/RdRp_knitwork_green_site_rna_tunnel_pure_split4000_batch012_217083.sdf']

$$$$
104238
     RDKit          3D

 24 26  0  0  0  0  0  0  0  0999 V2000
  -24.4172  -31.7152  -15.3493 C   0  0  0  0  0  0  0  0  0  0  0  0
  -25.5747  -32.4343  -16.0571 C   0  0  2  0  0  0  0  0  0  0  0  0
  -25.1719  -32.8299  -17.4919 C   0  0  0  0  0  0  0  0  0  0  0  0
  -26.1797  -33.7515  -18.1780 C   0  0  0  0  0  0  0  0  0  0  0  0
  -25.6279  -34.3392  -19.3767 N   0  0  0  0  0  0  0  0  0  0  0  0
  -25.0886  -35.7773  -19.6424 C   0  0  0  0  0  0  0  0  0  0  0  0
  -25.0814  -36.7231  -18.9537 O   0  0  0  0  0  0  0  0  0  0  0  0
  -24.5595  -35.8180  -21.0842 C   0  0  0  0  0  0  0  0  0  0  0  0
  -23.3373  -34.9867  -21.1955 C   0  0  0  0  0  0  0  0  0  0  0  0
  -23.0683  -33.7861  -21.8209 C   0  0  0  0  0  0  0  0  0  0  0  0
  -21.7835  -33.3825  -21.3740 C   0  0  0  0  0  0  0  0  0  0  0  0
  -20.9829  -32.2390  -21.5292 C   0  0  0  0  0  0  0  0  0  0  0  0
  -19.7615  -32.1803  -20.8438 C   0  0  0  0  0  0  0  0  0  0  0  0
  -19.3208  -33.2461  -20.0547 C   0  0  0  0  0  0  0  0  0  0  0  0
  -20.0979  -34.3977  -19.9000 C   0  0  0  0  0  0  0  0  0  0  0  0
  -21.3210  -34.4134  -20.5660 C   0  0  0  0  0  0  0  0  0  0  0  0
  -22.2446  -35.4102  -20.4974 O   0  0  0  0  0  0  0  0  0  0  0  0
  -26.8420  -31.7070  -15.9067 N   0  0  0  0  0  0  0  0  0  0  0  0
  -26.8931  -30.3470  -16.4546 C   0  0  0  0  0  0  0  0  0  0  0  0
  -27.6913  -30.3193  -17.7262 C   0  0  0  0  0  0  0  0  0  0  0  0
  -29.0709  -30.2518  -17.8270 C   0  0  0  0  0  0  0  0  0  0  0  0
  -29.5483  -30.2991  -19.4731 S   0  0  0  0  0  0  0  0  0  0  0  0
  -27.8999  -30.3432  -19.9293 C   0  0  0  0  0  0  0  0  0  0  0  0
  -27.0265  -30.3659  -18.9470 N   0  0  0  0  0  0  0  0  0  0  0  0
  2  1  1  6
  2  3  1  0
  3  4  1  0
  4  5  1  0
  5  6  1  0
  6  7  2  0
  6  8  1  0
  8  9  1  0
  9 10  2  0
 10 11  1  0
 11 12  2  0
 12 13  1  0
 13 14  2  0
 14 15  1  0
 15 16  2  0
 16 17  1  0
  2 18  1  0
 18 19  1  0
 19 20  1  0
 20 21  2  0
 21 22  1  0
 22 23  1  0
 23 24  2  0
 17  9  1  0
 24 20  1  0
 16 11  1  0
M  END
>  <HIPPO Pose ID>  (222) 
104238

>  <fragmenstein_outcome>  (222) 
acceptable

>  <energy_score>  (222) 
-83.870977

>  <distance_score>  (222) 
0.586315

>  <fragmenstein_mode>  (222) 
expansion

>  <HIPPO Compound ID>  (222) 
31369

>  <name>  (222) 
PUQRCJNDRHGQNG-CYBMUJFWSA-N

>  <ref_pdb>  (222) 
z0384a

>  <ref_mols>  (222) 
z0384a,3vws-b

>  <csv_name>  (222) 
RdRp_knitwork_green_site_rna_tunnel_pure_split4000_batch000.csv

>  <fragmenstein_runtime>  (222) 
2.987863

>  <tags>  (222) 
['Fragmenstein placed']

>  <original ID>  (222) 
PUQRCJNDRHGQNG-CYBMUJFWSA-N

>  <fragmenstein_error>  (222) 
None

>  <original SMILES>  (222) 
C[C@H](CCNC(=O)Cc1cc2ccccc2o1)NCc1cscn1

>  <inchikey>  (222) 
PUQRCJNDRHGQNG-CYBMUJFWSA-N

>  <SLURM_JOB_NAME>  (222) 
BulkDock.place:Flavi_NS5_RdRp:RdRp_knitwork_green_site_rna_tunnel_pure_split4000_batch000

>  <scratch_subdir>  (222) 
/opt/xchem-fragalysis-2/maxwin/BulkDock/SCRATCH/217071/C31369-P120

>  <alias>  (222) 
None

>  <SLURM_JOB_ID>  (222) 
217071

>  <exports>  (222) 
['/opt/xchem-fragalysis-2/maxwin/BulkDock/OUTPUTS/RdRp_knitwork_green_site_rna_tunnel_pure_split4000_batch000_217071.sdf']

$$$$
104252
     RDKit          3D

 24 26  0  0  0  0  0  0  0  0999 V2000
  -23.7776  -32.8216  -16.6311 C   0  0  0  0  0  0  0  0  0  0  0  0
  -24.8199  -33.6338  -17.4173 C   0  0  2  0  0  0  0  0  0  0  0  0
  -24.0898  -34.7579  -18.1536 C   0  0  0  0  0  0  0  0  0  0  0  0
  -25.0296  -35.7538  -18.8294 C   0  0  0  0  0  0  0  0  0  0  0  0
  -24.7851  -35.7027  -20.2343 N   0  0  0  0  0  0  0  0  0  0  0  0
  -24.7220  -36.8408  -21.2885 C   0  0  0  0  0  0  0  0  0  0  0  0
  -24.9367  -37.9836  -21.1815 O   0  0  0  0  0  0  0  0  0  0  0  0
  -24.1882  -36.2154  -22.5956 C   0  0  0  0  0  0  0  0  0  0  0  0
  -23.0790  -35.2569  -22.2940 C   0  0  0  0  0  0  0  0  0  0  0  0
  -22.9189  -33.9000  -22.5036 C   0  0  0  0  0  0  0  0  0  0  0  0
  -21.7804  -33.5040  -21.7479 C   0  0  0  0  0  0  0  0  0  0  0  0
  -21.1211  -32.2917  -21.4745 C   0  0  0  0  0  0  0  0  0  0  0  0
  -19.9831  -32.3121  -20.6532 C   0  0  0  0  0  0  0  0  0  0  0  0
  -19.5151  -33.5073  -20.0985 C   0  0  0  0  0  0  0  0  0  0  0  0
  -20.1676  -34.7210  -20.3413 C   0  0  0  0  0  0  0  0  0  0  0  0
  -21.2868  -34.6674  -21.1694 C   0  0  0  0  0  0  0  0  0  0  0  0
  -22.0560  -35.7310  -21.5232 O   0  0  0  0  0  0  0  0  0  0  0  0
  -25.5943  -32.8209  -18.3816 N   0  0  0  0  0  0  0  0  0  0  0  0
  -26.2540  -31.7187  -17.6854 C   0  0  0  0  0  0  0  0  0  0  0  0
  -27.2673  -31.0294  -18.5414 C   0  0  0  0  0  0  0  0  0  0  0  0
  -28.6325  -31.2605  -18.5414 C   0  0  0  0  0  0  0  0  0  0  0  0
  -29.4320  -30.0149  -19.3948 S   0  0  0  0  0  0  0  0  0  0  0  0
  -27.9163  -29.3705  -19.8444 C   0  0  0  0  0  0  0  0  0  0  0  0
  -26.8641  -29.9554  -19.3234 N   0  0  0  0  0  0  0  0  0  0  0  0
  2  1  1  6
  2  3  1  0
  3  4  1  0
  4  5  1  0
  5  6  1  0
  6  7  2  0
  6  8  1  0
  8  9  1  0
  9 10  2  0
 10 11  1  0
 11 12  2  0
 12 13  1  0
 13 14  2  0
 14 15  1  0
 15 16  2  0
 16 17  1  0
  2 18  1  0
 18 19  1  0
 19 20  1  0
 20 21  2  0
 21 22  1  0
 22 23  1  0
 23 24  2  0
 17  9  1  0
 24 20  1  0
 16 11  1  0
M  END
>  <HIPPO Pose ID>  (223) 
104252

>  <fragmenstein_outcome>  (223) 
acceptable

>  <energy_score>  (223) 
-75.784189

>  <distance_score>  (223) 
0.995137

>  <fragmenstein_mode>  (223) 
expansion

>  <HIPPO Compound ID>  (223) 
31369

>  <name>  (223) 
PUQRCJNDRHGQNG-CYBMUJFWSA-N

>  <ref_pdb>  (223) 
3vws-b

>  <ref_mols>  (223) 
z0384a,3vws-b

>  <csv_name>  (223) 
RdRp_knitwork_green_site_rna_tunnel_pure_split4000_batch000.csv

>  <fragmenstein_runtime>  (223) 
10.147528

>  <tags>  (223) 
['Fragmenstein placed']

>  <original ID>  (223) 
PUQRCJNDRHGQNG-CYBMUJFWSA-N

>  <fragmenstein_error>  (223) 
None

>  <original SMILES>  (223) 
C[C@H](CCNC(=O)Cc1cc2ccccc2o1)NCc1cscn1

>  <inchikey>  (223) 
PUQRCJNDRHGQNG-CYBMUJFWSA-N

>  <SLURM_JOB_NAME>  (223) 
BulkDock.place:Flavi_NS5_RdRp:RdRp_knitwork_green_site_rna_tunnel_pure_split4000_batch000

>  <scratch_subdir>  (223) 
/opt/xchem-fragalysis-2/maxwin/BulkDock/SCRATCH/217071/C31369-P217

>  <alias>  (223) 
None

>  <SLURM_JOB_ID>  (223) 
217071

>  <exports>  (223) 
['/opt/xchem-fragalysis-2/maxwin/BulkDock/OUTPUTS/RdRp_knitwork_green_site_rna_tunnel_pure_split4000_batch000_217071.sdf']

$$$$
104682
     RDKit          3D

 16 18  0  0  0  0  0  0  0  0999 V2000
  -26.1798  -29.0467  -23.2015 C   0  0  0  0  0  0  0  0  0  0  0  0
  -25.3505  -28.1777  -23.8707 C   0  0  0  0  0  0  0  0  0  0  0  0
  -24.9352  -26.8724  -22.8458 S   0  0  0  0  0  0  0  0  0  0  0  0
  -25.8141  -27.6076  -21.5560 C   0  0  0  0  0  0  0  0  0  0  0  0
  -25.7475  -27.0048  -20.1707 C   0  0  0  0  0  0  0  0  0  0  0  0
  -26.1280  -27.9463  -19.0413 C   0  0  0  0  0  0  0  0  0  0  0  0
  -25.2889  -28.1622  -17.9398 C   0  0  0  0  0  0  0  0  0  0  0  0
  -25.6807  -29.0100  -16.8993 C   0  0  0  0  0  0  0  0  0  0  0  0
  -26.9409  -29.6209  -16.9196 C   0  0  0  0  0  0  0  0  0  0  0  0
  -27.7941  -29.4249  -18.0157 C   0  0  0  0  0  0  0  0  0  0  0  0
  -27.3863  -28.5687  -19.0440 C   0  0  0  0  0  0  0  0  0  0  0  0
  -29.1037  -29.9236  -18.0348 N   0  0  0  0  0  0  0  0  0  0  0  0
  -29.3983  -31.0135  -17.1196 C   0  0  0  0  0  0  0  0  0  0  0  0
  -28.8743  -30.6835  -15.7304 C   0  0  0  0  0  0  0  0  0  0  0  0
  -27.3602  -30.5121  -15.7806 C   0  0  0  0  0  0  0  0  0  0  0  0
  -26.4600  -28.7093  -21.8926 N   0  0  0  0  0  0  0  0  0  0  0  0
  1  2  2  0
  2  3  1  0
  3  4  1  0
  4  5  1  0
  5  6  1  0
  6  7  2  0
  7  8  1  0
  8  9  2  0
  9 10  1  0
 10 11  2  0
 10 12  1  0
 12 13  1  0
 13 14  1  0
 14 15  1  0
  4 16  2  0
 16  1  1  0
 11  6  1  0
 15  9  1  0
M  END
>  <HIPPO Pose ID>  (224) 
104682

>  <fragmenstein_outcome>  (224) 
acceptable

>  <energy_score>  (224) 
-72.872877

>  <distance_score>  (224) 
0.886324

>  <fragmenstein_mode>  (224) 
expansion

>  <HIPPO Compound ID>  (224) 
37448

>  <name>  (224) 
LMRAQAFMRDQYKG-UHFFFAOYSA-N

>  <ref_pdb>  (224) 
z0496a

>  <ref_mols>  (224) 
z0165a,z0496a

>  <csv_name>  (224) 
RdRp_knitwork_green_site_rna_tunnel_pure_split4000_batch013.csv

>  <fragmenstein_runtime>  (224) 
1.543087

>  <tags>  (224) 
['Fragmenstein placed']

>  <original ID>  (224) 
LMRAQAFMRDQYKG-UHFFFAOYSA-N

>  <fragmenstein_error>  (224) 
None

>  <original SMILES>  (224) 
c1csc(Cc2ccc3c(c2)NCCC3)n1

>  <inchikey>  (224) 
LMRAQAFMRDQYKG-UHFFFAOYSA-N

>  <SLURM_JOB_NAME>  (224) 
BulkDock.place:Flavi_NS5_RdRp:RdRp_knitwork_green_site_rna_tunnel_pure_split4000_batch013

>  <scratch_subdir>  (224) 
/opt/xchem-fragalysis-2/maxwin/BulkDock/SCRATCH/217084/C37448-P136

>  <alias>  (224) 
None

>  <SLURM_JOB_ID>  (224) 
217084

>  <exports>  (224) 
['/opt/xchem-fragalysis-2/maxwin/BulkDock/OUTPUTS/RdRp_knitwork_green_site_rna_tunnel_pure_split4000_batch013_217084.sdf']

$$$$
104762
     RDKit          3D

 20 21  0  0  0  0  0  0  0  0999 V2000
  -28.1815  -29.9802  -15.7983 C   0  0  0  0  0  0  0  0  0  0  0  0
  -28.1967  -30.0176  -17.2328 N   0  0  0  0  0  0  0  0  0  0  0  0
  -27.1287  -30.0084  -18.0760 C   0  0  0  0  0  0  0  0  0  0  0  0
  -27.6443  -30.0887  -19.3572 C   0  0  0  0  0  0  0  0  0  0  0  0
  -26.9018  -30.0792  -20.6515 C   0  0  2  0  0  0  0  0  0  0  0  0
  -27.6744  -29.3758  -21.7685 C   0  0  0  0  0  0  0  0  0  0  0  0
  -28.7810  -30.1418  -22.2030 O   0  0  0  0  0  0  0  0  0  0  0  0
  -26.4238  -31.3956  -21.0614 N   0  0  0  0  0  0  0  0  0  0  0  0
  -25.1732  -31.7863  -20.3882 C   0  0  0  0  0  0  0  0  0  0  0  0
  -24.3136  -32.7082  -21.2706 C   0  0  1  0  0  0  0  0  0  0  0  0
  -25.0094  -33.9283  -21.5462 O   0  0  0  0  0  0  0  0  0  0  0  0
  -23.9719  -31.9583  -22.5626 C   0  0  0  0  0  0  0  0  0  0  0  0
  -23.0182  -32.6258  -23.4181 N   0  0  0  0  0  0  0  0  0  0  0  0
  -21.6145  -32.7218  -23.1240 C   0  0  0  0  0  0  0  0  0  0  0  0
  -21.0148  -33.0138  -24.4834 C   0  0  0  0  0  0  0  0  0  0  0  0
  -22.1034  -33.7972  -25.2099 C   0  0  0  0  0  0  0  0  0  0  0  0
  -23.3669  -33.2456  -24.6026 C   0  0  0  0  0  0  0  0  0  0  0  0
  -24.4860  -33.3447  -25.0782 O   0  0  0  0  0  0  0  0  0  0  0  0
  -29.0485  -30.1058  -19.1499 C   0  0  0  0  0  0  0  0  0  0  0  0
  -29.3784  -30.0689  -17.8588 N   0  0  0  0  0  0  0  0  0  0  0  0
  1  2  1  0
  2  3  1  0
  3  4  2  0
  4  5  1  0
  5  6  1  6
  6  7  1  0
  5  8  1  0
  8  9  1  0
  9 10  1  0
 10 11  1  6
 10 12  1  0
 12 13  1  0
 13 14  1  0
 14 15  1  0
 15 16  1  0
 16 17  1  0
 17 18  2  0
  4 19  1  0
 19 20  2  0
 20  2  1  0
 17 13  1  0
M  END
>  <HIPPO Pose ID>  (225) 
104762

>  <fragmenstein_outcome>  (225) 
acceptable

>  <energy_score>  (225) 
-54.802888

>  <distance_score>  (225) 
0.953069

>  <fragmenstein_mode>  (225) 
expansion

>  <HIPPO Compound ID>  (225) 
43155

>  <name>  (225) 
AQCOXBPIGUJRMX-NEPJUHHUSA-N

>  <ref_pdb>  (225) 
z0215a

>  <ref_mols>  (225) 
z0215a,z1018a

>  <csv_name>  (225) 
RdRp_knitwork_green_site_rna_tunnel_pure_split4000_batch010.csv

>  <fragmenstein_runtime>  (225) 
3.559872

>  <tags>  (225) 
['Fragmenstein placed']

>  <original ID>  (225) 
AQCOXBPIGUJRMX-NEPJUHHUSA-N

>  <fragmenstein_error>  (225) 
None

>  <original SMILES>  (225) 
Cn1cc([C@H](CO)NC[C@@H](O)CN2CCCC2=O)cn1

>  <inchikey>  (225) 
AQCOXBPIGUJRMX-NEPJUHHUSA-N

>  <SLURM_JOB_NAME>  (225) 
BulkDock.place:Flavi_NS5_RdRp:RdRp_knitwork_green_site_rna_tunnel_pure_split4000_batch010

>  <scratch_subdir>  (225) 
/opt/xchem-fragalysis-2/maxwin/BulkDock/SCRATCH/217081/C43155-P104

>  <alias>  (225) 
None

>  <SLURM_JOB_ID>  (225) 
217081

>  <exports>  (225) 
['/opt/xchem-fragalysis-2/maxwin/BulkDock/OUTPUTS/RdRp_knitwork_green_site_rna_tunnel_pure_split4000_batch010_217081.sdf']

$$$$
104767
     RDKit          3D

 20 21  0  0  0  0  0  0  0  0999 V2000
  -28.0598  -29.7130  -15.8537 C   0  0  0  0  0  0  0  0  0  0  0  0
  -28.3248  -29.9503  -17.2422 N   0  0  0  0  0  0  0  0  0  0  0  0
  -27.4259  -30.0200  -18.2611 C   0  0  0  0  0  0  0  0  0  0  0  0
  -28.1551  -30.2328  -19.4207 C   0  0  0  0  0  0  0  0  0  0  0  0
  -27.6475  -30.2628  -20.8301 C   0  0  2  0  0  0  0  0  0  0  0  0
  -28.4492  -29.4177  -21.8524 C   0  0  0  0  0  0  0  0  0  0  0  0
  -29.8502  -29.3255  -21.6523 O   0  0  0  0  0  0  0  0  0  0  0  0
  -26.9924  -31.5066  -21.2654 N   0  0  0  0  0  0  0  0  0  0  0  0
  -25.7405  -31.7907  -20.5123 C   0  0  0  0  0  0  0  0  0  0  0  0
  -24.7146  -32.6392  -21.2941 C   0  0  1  0  0  0  0  0  0  0  0  0
  -25.3384  -33.8414  -21.7583 O   0  0  0  0  0  0  0  0  0  0  0  0
  -24.1388  -31.7959  -22.4439 C   0  0  0  0  0  0  0  0  0  0  0  0
  -23.2063  -32.4870  -23.3081 N   0  0  0  0  0  0  0  0  0  0  0  0
  -21.8391  -32.7612  -22.9454 C   0  0  0  0  0  0  0  0  0  0  0  0
  -21.2121  -33.1349  -24.2757 C   0  0  0  0  0  0  0  0  0  0  0  0
  -22.3561  -33.7886  -25.0457 C   0  0  0  0  0  0  0  0  0  0  0  0
  -23.5748  -33.0872  -24.4977 C   0  0  0  0  0  0  0  0  0  0  0  0
  -24.6813  -33.0663  -25.0168 O   0  0  0  0  0  0  0  0  0  0  0  0
  -29.4924  -30.2951  -18.9455 C   0  0  0  0  0  0  0  0  0  0  0  0
  -29.5898  -30.1450  -17.6255 N   0  0  0  0  0  0  0  0  0  0  0  0
  1  2  1  0
  2  3  1  0
  3  4  2  0
  4  5  1  0
  5  6  1  6
  6  7  1  0
  5  8  1  0
  8  9  1  0
  9 10  1  0
 10 11  1  6
 10 12  1  0
 12 13  1  0
 13 14  1  0
 14 15  1  0
 15 16  1  0
 16 17  1  0
 17 18  2  0
  4 19  1  0
 19 20  2  0
 20  2  1  0
 17 13  1  0
M  END
>  <HIPPO Pose ID>  (226) 
104767

>  <fragmenstein_outcome>  (226) 
acceptable

>  <energy_score>  (226) 
-34.87204

>  <distance_score>  (226) 
0.8495

>  <fragmenstein_mode>  (226) 
expansion

>  <HIPPO Compound ID>  (226) 
43155

>  <name>  (226) 
AQCOXBPIGUJRMX-NEPJUHHUSA-N

>  <ref_pdb>  (226) 
z1018a

>  <ref_mols>  (226) 
z0215a,z1018a

>  <csv_name>  (226) 
RdRp_knitwork_green_site_rna_tunnel_pure_split4000_batch010.csv

>  <fragmenstein_runtime>  (226) 
3.841443

>  <tags>  (226) 
['Fragmenstein placed']

>  <original ID>  (226) 
AQCOXBPIGUJRMX-NEPJUHHUSA-N

>  <fragmenstein_error>  (226) 
None

>  <original SMILES>  (226) 
Cn1cc([C@H](CO)NC[C@@H](O)CN2CCCC2=O)cn1

>  <inchikey>  (226) 
AQCOXBPIGUJRMX-NEPJUHHUSA-N

>  <SLURM_JOB_NAME>  (226) 
BulkDock.place:Flavi_NS5_RdRp:RdRp_knitwork_green_site_rna_tunnel_pure_split4000_batch010

>  <scratch_subdir>  (226) 
/opt/xchem-fragalysis-2/maxwin/BulkDock/SCRATCH/217081/C43155-P206

>  <alias>  (226) 
None

>  <SLURM_JOB_ID>  (226) 
217081

>  <exports>  (226) 
['/opt/xchem-fragalysis-2/maxwin/BulkDock/OUTPUTS/RdRp_knitwork_green_site_rna_tunnel_pure_split4000_batch010_217081.sdf']

$$$$
105703
     RDKit          3D

 20 21  0  0  0  0  0  0  0  0999 V2000
  -29.2652  -30.0288  -21.5264 C   0  0  0  0  0  0  0  0  0  0  0  0
  -27.9128  -30.2524  -20.8421 C   0  0  0  0  0  0  0  0  0  0  0  0
  -27.0350  -29.1711  -21.4690 C   0  0  0  0  0  0  0  0  0  0  0  0
  -27.2808  -31.6205  -21.2787 C   0  0  0  0  0  0  0  0  0  0  0  0
  -27.8750  -32.3648  -21.9535 O   0  0  0  0  0  0  0  0  0  0  0  0
  -25.8206  -31.6828  -20.7579 N   0  0  0  0  0  0  0  0  0  0  0  0
  -24.7634  -32.6271  -21.0399 C   0  0  0  0  0  0  0  0  0  0  0  0
  -23.6169  -31.9211  -21.7809 C   0  0  0  0  0  0  0  0  0  0  0  0
  -22.8769  -32.7512  -22.7140 N   0  0  0  0  0  0  0  0  0  0  0  0
  -21.4344  -32.7401  -22.7543 C   0  0  0  0  0  0  0  0  0  0  0  0
  -21.1016  -32.9073  -24.2227 C   0  0  0  0  0  0  0  0  0  0  0  0
  -22.2948  -33.6552  -24.7939 C   0  0  0  0  0  0  0  0  0  0  0  0
  -23.4214  -33.1575  -23.9290 C   0  0  0  0  0  0  0  0  0  0  0  0
  -24.5967  -33.1354  -24.2533 O   0  0  0  0  0  0  0  0  0  0  0  0
  -28.0149  -30.1060  -19.3249 C   0  0  0  0  0  0  0  0  0  0  0  0
  -29.2388  -30.1283  -18.6484 C   0  0  0  0  0  0  0  0  0  0  0  0
  -29.2704  -30.0174  -17.2610 C   0  0  0  0  0  0  0  0  0  0  0  0
  -28.0813  -29.8881  -16.5652 C   0  0  0  0  0  0  0  0  0  0  0  0
  -26.9054  -29.8803  -17.2921 C   0  0  0  0  0  0  0  0  0  0  0  0
  -26.8479  -29.9848  -18.6411 N   0  0  0  0  0  0  0  0  0  0  0  0
  1  2  1  0
  2  3  1  0
  2  4  1  0
  4  5  2  0
  4  6  1  0
  6  7  1  0
  7  8  1  0
  8  9  1  0
  9 10  1  0
 10 11  1  0
 11 12  1  0
 12 13  1  0
 13 14  2  0
  2 15  1  0
 15 16  2  0
 16 17  1  0
 17 18  2  0
 18 19  1  0
 19 20  2  0
 13  9  1  0
 20 15  1  0
M  END
>  <HIPPO Pose ID>  (227) 
105703

>  <fragmenstein_outcome>  (227) 
acceptable

>  <energy_score>  (227) 
-37.790939

>  <distance_score>  (227) 
0.899062

>  <fragmenstein_mode>  (227) 
expansion

>  <HIPPO Compound ID>  (227) 
3858

>  <name>  (227) 
XBTZHZJFKLULGP-UHFFFAOYSA-N

>  <ref_pdb>  (227) 
z0215a

>  <ref_mols>  (227) 
z0215a,z1018a

>  <csv_name>  (227) 
RdRp_knitwork_green_site_rna_tunnel_pure_split4000_batch010.csv

>  <fragmenstein_runtime>  (227) 
3.752388

>  <tags>  (227) 
['Fragmenstein placed']

>  <original ID>  (227) 
XBTZHZJFKLULGP-UHFFFAOYSA-N

>  <fragmenstein_error>  (227) 
None

>  <original SMILES>  (227) 
CC(C)(C(=O)NCCN1CCCC1=O)c1ccccn1

>  <inchikey>  (227) 
XBTZHZJFKLULGP-UHFFFAOYSA-N

>  <SLURM_JOB_NAME>  (227) 
BulkDock.place:Flavi_NS5_RdRp:RdRp_knitwork_green_site_rna_tunnel_pure_split4000_batch010

>  <scratch_subdir>  (227) 
/opt/xchem-fragalysis-2/maxwin/BulkDock/SCRATCH/217081/C3858-P104

>  <alias>  (227) 
None

>  <SLURM_JOB_ID>  (227) 
217081

>  <exports>  (227) 
['/opt/xchem-fragalysis-2/maxwin/BulkDock/OUTPUTS/RdRp_knitwork_green_site_rna_tunnel_pure_split4000_batch010_217081.sdf']

$$$$
105729
     RDKit          3D

 24 25  0  0  0  0  0  0  0  0999 V2000
  -27.9178  -28.3802  -20.9454 C   0  0  0  0  0  0  0  0  0  0  0  0
  -27.6453  -29.8710  -20.7188 C   0  0  0  0  0  0  0  0  0  0  0  0
  -28.6367  -30.6516  -21.6014 C   0  0  0  0  0  0  0  0  0  0  0  0
  -26.2943  -30.2996  -21.3716 C   0  0  0  0  0  0  0  0  0  0  0  0
  -25.8427  -29.6461  -22.2255 O   0  0  0  0  0  0  0  0  0  0  0  0
  -25.8258  -31.6475  -20.7928 N   0  0  0  0  0  0  0  0  0  0  0  0
  -24.7513  -32.5288  -21.2076 C   0  0  0  0  0  0  0  0  0  0  0  0
  -23.5931  -31.8487  -21.9457 C   0  0  0  0  0  0  0  0  0  0  0  0
  -22.8419  -32.7458  -22.8102 N   0  0  0  0  0  0  0  0  0  0  0  0
  -21.4025  -32.6811  -22.8863 C   0  0  0  0  0  0  0  0  0  0  0  0
  -21.0885  -32.9513  -24.3428 C   0  0  0  0  0  0  0  0  0  0  0  0
  -22.2737  -33.7577  -24.8461 C   0  0  0  0  0  0  0  0  0  0  0  0
  -23.3966  -33.2471  -23.9861 C   0  0  0  0  0  0  0  0  0  0  0  0
  -24.5812  -33.2974  -24.2756 O   0  0  0  0  0  0  0  0  0  0  0  0
  -27.9958  -30.0900  -19.2543 C   0  0  0  0  0  0  0  0  0  0  0  0
  -27.1049  -30.1569  -18.1912 C   0  0  0  0  0  0  0  0  0  0  0  0
  -27.6226  -30.2893  -16.8824 C   0  0  0  0  0  0  0  0  0  0  0  0
  -26.7322  -30.4758  -15.6912 C   0  0  0  0  0  0  0  0  0  0  0  0
  -27.4164  -30.7049  -14.5312 F   0  0  0  0  0  0  0  0  0  0  0  0
  -25.9739  -29.3774  -15.4633 F   0  0  0  0  0  0  0  0  0  0  0  0
  -25.8649  -31.5099  -15.8251 F   0  0  0  0  0  0  0  0  0  0  0  0
  -28.9995  -30.2578  -16.6710 C   0  0  0  0  0  0  0  0  0  0  0  0
  -29.8078  -30.1384  -17.7639 C   0  0  0  0  0  0  0  0  0  0  0  0
  -29.3368  -30.0718  -19.0176 N   0  0  0  0  0  0  0  0  0  0  0  0
  1  2  1  0
  2  3  1  0
  2  4  1  0
  4  5  2  0
  4  6  1  0
  6  7  1  0
  7  8  1  0
  8  9  1  0
  9 10  1  0
 10 11  1  0
 11 12  1  0
 12 13  1  0
 13 14  2  0
  2 15  1  0
 15 16  2  0
 16 17  1  0
 17 18  1  0
 18 19  1  0
 18 20  1  0
 18 21  1  0
 17 22  2  0
 22 23  1  0
 23 24  2  0
 13  9  1  0
 24 15  1  0
M  END
>  <HIPPO Pose ID>  (228) 
105729

>  <fragmenstein_outcome>  (228) 
acceptable

>  <energy_score>  (228) 
-4.567752

>  <distance_score>  (228) 
0.783638

>  <fragmenstein_mode>  (228) 
expansion

>  <HIPPO Compound ID>  (228) 
3859

>  <name>  (228) 
PIQIERIHVPPJFY-UHFFFAOYSA-N

>  <ref_pdb>  (228) 
z0215a

>  <ref_mols>  (228) 
z0215a,z1018a

>  <csv_name>  (228) 
RdRp_knitwork_green_site_rna_tunnel_pure_split4000_batch010.csv

>  <fragmenstein_runtime>  (228) 
10.850875

>  <tags>  (228) 
['Fragmenstein placed']

>  <original ID>  (228) 
PIQIERIHVPPJFY-UHFFFAOYSA-N

>  <fragmenstein_error>  (228) 
None

>  <original SMILES>  (228) 
CC(C)(C(=O)NCCN1CCCC1=O)c1cc(C(F)(F)F)ccn1

>  <inchikey>  (228) 
PIQIERIHVPPJFY-UHFFFAOYSA-N

>  <SLURM_JOB_NAME>  (228) 
BulkDock.place:Flavi_NS5_RdRp:RdRp_knitwork_green_site_rna_tunnel_pure_split4000_batch010

>  <scratch_subdir>  (228) 
/opt/xchem-fragalysis-2/maxwin/BulkDock/SCRATCH/217081/C3859-P104

>  <alias>  (228) 
None

>  <SLURM_JOB_ID>  (228) 
217081

>  <exports>  (228) 
['/opt/xchem-fragalysis-2/maxwin/BulkDock/OUTPUTS/RdRp_knitwork_green_site_rna_tunnel_pure_split4000_batch010_217081.sdf']

$$$$
105807
     RDKit          3D

 23 25  0  0  0  0  0  0  0  0999 V2000
  -21.8259  -33.1910  -20.1310 C   0  0  0  0  0  0  0  0  0  0  0  0
  -22.2561  -31.9137  -20.8485 C   0  0  0  0  0  0  0  0  0  0  0  0
  -23.2572  -32.0982  -22.0227 C   0  0  2  0  0  0  0  0  0  0  0  0
  -24.6036  -32.6407  -21.4938 C   0  0  0  0  0  0  0  0  0  0  0  0
  -25.5174  -31.5212  -20.9955 C   0  0  0  0  0  0  0  0  0  0  0  0
  -26.3129  -30.8883  -22.0736 N   0  0  0  0  0  0  0  0  0  0  0  0
  -27.5001  -30.3935  -21.6179 C   0  0  0  0  0  0  0  0  0  0  0  0
  -28.6585  -31.0099  -21.6167 N   0  0  0  0  0  0  0  0  0  0  0  0
  -29.4297  -30.6347  -20.5170 N   0  0  0  0  0  0  0  0  0  0  0  0
  -28.7227  -29.8502  -19.7285 C   0  0  0  0  0  0  0  0  0  0  0  0
  -28.6445  -29.8710  -18.2642 C   0  0  0  0  0  0  0  0  0  0  0  0
  -27.4234  -29.7851  -17.5842 C   0  0  0  0  0  0  0  0  0  0  0  0
  -27.3920  -29.9700  -16.2051 C   0  0  0  0  0  0  0  0  0  0  0  0
  -28.5751  -30.2441  -15.5400 C   0  0  0  0  0  0  0  0  0  0  0  0
  -29.7387  -30.3297  -16.2843 C   0  0  0  0  0  0  0  0  0  0  0  0
  -29.7987  -30.1469  -17.6195 N   0  0  0  0  0  0  0  0  0  0  0  0
  -27.6310  -28.9578  -20.6997 S   0  0  0  0  0  0  0  0  0  0  0  0
  -22.6915  -32.8845  -23.1343 N   0  0  0  0  0  0  0  0  0  0  0  0
  -21.2867  -32.7849  -23.4831 C   0  0  0  0  0  0  0  0  0  0  0  0
  -21.1738  -33.2054  -24.9340 C   0  0  0  0  0  0  0  0  0  0  0  0
  -22.5045  -33.8398  -25.2700 C   0  0  0  0  0  0  0  0  0  0  0  0
  -23.4357  -33.2225  -24.2670 C   0  0  0  0  0  0  0  0  0  0  0  0
  -24.6382  -33.0955  -24.4327 O   0  0  0  0  0  0  0  0  0  0  0  0
  1  2  1  0
  3  2  1  1
  3  4  1  0
  4  5  1  0
  5  6  1  0
  6  7  1  0
  7  8  2  0
  8  9  1  0
  9 10  2  0
 10 11  1  0
 11 12  2  0
 12 13  1  0
 13 14  2  0
 14 15  1  0
 15 16  2  0
 10 17  1  0
  3 18  1  0
 18 19  1  0
 19 20  1  0
 20 21  1  0
 21 22  1  0
 22 23  2  0
 17  7  1  0
 22 18  1  0
 16 11  1  0
M  END
>  <HIPPO Pose ID>  (229) 
105807

>  <fragmenstein_outcome>  (229) 
acceptable

>  <energy_score>  (229) 
-115.206541

>  <distance_score>  (229) 
0.691198

>  <fragmenstein_mode>  (229) 
expansion

>  <HIPPO Compound ID>  (229) 
4037

>  <name>  (229) 
CKUSDJBXLSLBTD-GFCCVEGCSA-N

>  <ref_pdb>  (229) 
z0215a

>  <ref_mols>  (229) 
z0215a,z1018a

>  <csv_name>  (229) 
RdRp_knitwork_green_site_rna_tunnel_pure_split4000_batch010.csv

>  <fragmenstein_runtime>  (229) 
3.082577

>  <tags>  (229) 
['Fragmenstein placed']

>  <original ID>  (229) 
CKUSDJBXLSLBTD-GFCCVEGCSA-N

>  <fragmenstein_error>  (229) 
None

>  <original SMILES>  (229) 
CC[C@H](CCNc1nnc(-c2ccccn2)s1)N1CCCC1=O

>  <inchikey>  (229) 
CKUSDJBXLSLBTD-GFCCVEGCSA-N

>  <SLURM_JOB_NAME>  (229) 
BulkDock.place:Flavi_NS5_RdRp:RdRp_knitwork_green_site_rna_tunnel_pure_split4000_batch010

>  <scratch_subdir>  (229) 
/opt/xchem-fragalysis-2/maxwin/BulkDock/SCRATCH/217081/C4037-P104

>  <alias>  (229) 
None

>  <SLURM_JOB_ID>  (229) 
217081

>  <exports>  (229) 
['/opt/xchem-fragalysis-2/maxwin/BulkDock/OUTPUTS/RdRp_knitwork_green_site_rna_tunnel_pure_split4000_batch010_217081.sdf']

$$$$
105979
     RDKit          3D

 21 23  0  0  0  0  0  0  0  0999 V2000
  -27.3273  -29.6754  -22.2254 O   0  0  0  0  0  0  0  0  0  0  0  0
  -26.8270  -30.0563  -21.1744 C   0  0  0  0  0  0  0  0  0  0  0  0
  -25.5159  -30.3800  -21.0989 O   0  0  0  0  0  0  0  0  0  0  0  0
  -25.0635  -31.5764  -20.4389 C   0  0  0  0  0  0  0  0  0  0  0  0
  -24.4616  -32.5387  -21.4467 C   0  0  0  0  0  0  0  0  0  0  0  0
  -23.3786  -31.8609  -22.2762 C   0  0  0  0  0  0  0  0  0  0  0  0
  -22.7342  -32.7605  -23.2105 N   0  0  0  0  0  0  0  0  0  0  0  0
  -21.3060  -32.7426  -23.4025 C   0  0  0  0  0  0  0  0  0  0  0  0
  -21.1140  -33.2042  -24.8328 C   0  0  0  0  0  0  0  0  0  0  0  0
  -22.3682  -33.9985  -25.1563 C   0  0  0  0  0  0  0  0  0  0  0  0
  -23.3999  -33.3530  -24.2737 C   0  0  0  0  0  0  0  0  0  0  0  0
  -24.6046  -33.3870  -24.4604 O   0  0  0  0  0  0  0  0  0  0  0  0
  -27.6244  -30.0688  -19.9192 C   0  0  0  0  0  0  0  0  0  0  0  0
  -29.0098  -30.0748  -20.0338 C   0  0  0  0  0  0  0  0  0  0  0  0
  -29.7492  -30.0641  -18.8728 C   0  0  0  0  0  0  0  0  0  0  0  0
  -29.2078  -30.0148  -17.6402 N   0  0  0  0  0  0  0  0  0  0  0  0
  -27.8595  -29.9892  -17.5200 C   0  0  0  0  0  0  0  0  0  0  0  0
  -27.2570  -29.9095  -16.1449 C   0  0  0  0  0  0  0  0  0  0  0  0
  -28.1562  -30.1292  -14.9545 C   0  0  0  0  0  0  0  0  0  0  0  0
  -27.0913  -31.1316  -15.2766 C   0  0  0  0  0  0  0  0  0  0  0  0
  -27.0467  -30.0127  -18.6468 C   0  0  0  0  0  0  0  0  0  0  0  0
  1  2  2  0
  2  3  1  0
  3  4  1  0
  4  5  1  0
  5  6  1  0
  6  7  1  0
  7  8  1  0
  8  9  1  0
  9 10  1  0
 10 11  1  0
 11 12  2  0
  2 13  1  0
 13 14  2  0
 14 15  1  0
 15 16  2  0
 16 17  1  0
 17 18  1  0
 18 19  1  0
 19 20  1  0
 17 21  2  0
 11  7  1  0
 21 13  1  0
 20 18  1  0
M  END
>  <HIPPO Pose ID>  (230) 
105979

>  <fragmenstein_outcome>  (230) 
acceptable

>  <energy_score>  (230) 
-17.290364

>  <distance_score>  (230) 
0.746188

>  <fragmenstein_mode>  (230) 
expansion

>  <HIPPO Compound ID>  (230) 
4091

>  <name>  (230) 
PPLQPJVUYBOHPD-UHFFFAOYSA-N

>  <ref_pdb>  (230) 
z0215a

>  <ref_mols>  (230) 
z0215a,z1018a

>  <csv_name>  (230) 
RdRp_knitwork_green_site_rna_tunnel_pure_split4000_batch010.csv

>  <fragmenstein_runtime>  (230) 
7.53621

>  <tags>  (230) 
['Fragmenstein placed']

>  <original ID>  (230) 
PPLQPJVUYBOHPD-UHFFFAOYSA-N

>  <fragmenstein_error>  (230) 
None

>  <original SMILES>  (230) 
O=C(OCCCN1CCCC1=O)c1ccnc(C2CC2)c1

>  <inchikey>  (230) 
PPLQPJVUYBOHPD-UHFFFAOYSA-N

>  <SLURM_JOB_NAME>  (230) 
BulkDock.place:Flavi_NS5_RdRp:RdRp_knitwork_green_site_rna_tunnel_pure_split4000_batch010

>  <scratch_subdir>  (230) 
/opt/xchem-fragalysis-2/maxwin/BulkDock/SCRATCH/217081/C4091-P104

>  <alias>  (230) 
None

>  <SLURM_JOB_ID>  (230) 
217081

>  <exports>  (230) 
['/opt/xchem-fragalysis-2/maxwin/BulkDock/OUTPUTS/RdRp_knitwork_green_site_rna_tunnel_pure_split4000_batch010_217081.sdf']

$$$$
106018
     RDKit          3D

 20 22  0  0  0  0  0  0  0  0999 V2000
  -24.5606  -33.1347  -24.4185 O   0  0  0  0  0  0  0  0  0  0  0  0
  -23.3813  -33.1501  -24.1092 C   0  0  0  0  0  0  0  0  0  0  0  0
  -22.2721  -33.7369  -24.9400 C   0  0  0  0  0  0  0  0  0  0  0  0
  -21.0527  -32.9916  -24.4207 C   0  0  0  0  0  0  0  0  0  0  0  0
  -21.3764  -32.7057  -22.9689 C   0  0  0  0  0  0  0  0  0  0  0  0
  -22.8167  -32.6576  -22.9398 N   0  0  0  0  0  0  0  0  0  0  0  0
  -23.5384  -31.7829  -22.0368 C   0  0  0  0  0  0  0  0  0  0  0  0
  -24.5922  -32.4803  -21.1756 C   0  0  0  0  0  0  0  0  0  0  0  0
  -25.6471  -31.5638  -20.8130 N   0  0  0  0  0  0  0  0  0  0  0  0
  -27.1221  -31.5355  -21.2177 C   0  0  0  0  0  0  0  0  0  0  0  0
  -27.7456  -32.2882  -21.8468 O   0  0  0  0  0  0  0  0  0  0  0  0
  -27.7758  -30.2463  -20.7609 C   0  0  0  0  0  0  0  0  0  0  0  0
  -28.0457  -30.0944  -19.2730 C   0  0  0  0  0  0  0  0  0  0  0  0
  -29.3383  -30.1735  -18.7499 C   0  0  0  0  0  0  0  0  0  0  0  0
  -29.5450  -30.0635  -17.3773 C   0  0  0  0  0  0  0  0  0  0  0  0
  -28.4576  -29.8720  -16.5420 C   0  0  0  0  0  0  0  0  0  0  0  0
  -27.2053  -29.7980  -17.1206 C   0  0  0  0  0  0  0  0  0  0  0  0
  -26.9817  -29.8951  -18.4504 N   0  0  0  0  0  0  0  0  0  0  0  0
  -28.7240  -29.5780  -21.7507 C   0  0  0  0  0  0  0  0  0  0  0  0
  -27.3773  -28.9908  -21.5236 C   0  0  0  0  0  0  0  0  0  0  0  0
  1  2  2  0
  2  3  1  0
  3  4  1  0
  4  5  1  0
  5  6  1  0
  6  7  1  0
  7  8  1  0
  8  9  1  0
  9 10  1  0
 10 11  2  0
 10 12  1  0
 12 13  1  0
 13 14  2  0
 14 15  1  0
 15 16  2  0
 16 17  1  0
 17 18  2  0
 12 19  1  0
 19 20  1  0
  6  2  1  0
 20 12  1  0
 18 13  1  0
M  END
>  <HIPPO Pose ID>  (231) 
106018

>  <fragmenstein_outcome>  (231) 
acceptable

>  <energy_score>  (231) 
-13.818041

>  <distance_score>  (231) 
0.72299

>  <fragmenstein_mode>  (231) 
expansion

>  <HIPPO Compound ID>  (231) 
4093

>  <name>  (231) 
GEKOBKXDLILBGR-UHFFFAOYSA-N

>  <ref_pdb>  (231) 
z0215a

>  <ref_mols>  (231) 
z0215a,z1018a

>  <csv_name>  (231) 
RdRp_knitwork_green_site_rna_tunnel_pure_split4000_batch010.csv

>  <fragmenstein_runtime>  (231) 
6.603807

>  <tags>  (231) 
['Fragmenstein placed']

>  <original ID>  (231) 
GEKOBKXDLILBGR-UHFFFAOYSA-N

>  <fragmenstein_error>  (231) 
None

>  <original SMILES>  (231) 
O=C1CCCN1CCNC(=O)C1(c2ccccn2)CC1

>  <inchikey>  (231) 
GEKOBKXDLILBGR-UHFFFAOYSA-N

>  <SLURM_JOB_NAME>  (231) 
BulkDock.place:Flavi_NS5_RdRp:RdRp_knitwork_green_site_rna_tunnel_pure_split4000_batch010

>  <scratch_subdir>  (231) 
/opt/xchem-fragalysis-2/maxwin/BulkDock/SCRATCH/217081/C4093-P104

>  <alias>  (231) 
None

>  <SLURM_JOB_ID>  (231) 
217081

>  <exports>  (231) 
['/opt/xchem-fragalysis-2/maxwin/BulkDock/OUTPUTS/RdRp_knitwork_green_site_rna_tunnel_pure_split4000_batch010_217081.sdf']

$$$$
106021
     RDKit          3D

 16 18  0  0  0  0  0  0  0  0999 V2000
  -26.9482  -30.6000  -14.6875 C   0  0  0  0  0  0  0  0  0  0  0  0
  -28.2390  -30.2501  -15.0655 C   0  0  0  0  0  0  0  0  0  0  0  0
  -28.4501  -29.6777  -16.3119 C   0  0  0  0  0  0  0  0  0  0  0  0
  -27.3594  -29.5013  -17.1612 C   0  0  0  0  0  0  0  0  0  0  0  0
  -27.5383  -29.2923  -18.6052 C   0  0  0  0  0  0  0  0  0  0  0  0
  -28.4213  -30.1660  -19.2719 C   0  0  0  0  0  0  0  0  0  0  0  0
  -28.5292  -30.1716  -20.6521 C   0  0  0  0  0  0  0  0  0  0  0  0
  -27.7216  -29.3340  -21.4040 C   0  0  0  0  0  0  0  0  0  0  0  0
  -26.8290  -28.4507  -20.7868 C   0  0  0  0  0  0  0  0  0  0  0  0
  -26.7840  -28.3822  -19.3784 C   0  0  0  0  0  0  0  0  0  0  0  0
  -25.9246  -27.3047  -18.7608 C   0  0  0  0  0  0  0  0  0  0  0  0
  -24.6731  -27.1059  -19.5926 C   0  0  0  0  0  0  0  0  0  0  0  0
  -25.0452  -26.7503  -21.0163 C   0  0  0  0  0  0  0  0  0  0  0  0
  -26.0602  -27.6168  -21.5943 N   0  0  0  0  0  0  0  0  0  0  0  0
  -26.0875  -29.7795  -16.7717 N   0  0  0  0  0  0  0  0  0  0  0  0
  -25.9113  -30.3176  -15.5516 C   0  0  0  0  0  0  0  0  0  0  0  0
  1  2  2  0
  2  3  1  0
  3  4  2  0
  4  5  1  0
  5  6  2  0
  6  7  1  0
  7  8  2  0
  8  9  1  0
  9 10  2  0
 10 11  1  0
 11 12  1  0
 12 13  1  0
 13 14  1  0
  4 15  1  0
 15 16  2  0
 16  1  1  0
 10  5  1  0
 14  9  1  0
M  END
>  <HIPPO Pose ID>  (232) 
106021

>  <fragmenstein_outcome>  (232) 
acceptable

>  <energy_score>  (232) 
-26.074779

>  <distance_score>  (232) 
0.819301

>  <fragmenstein_mode>  (232) 
expansion

>  <HIPPO Compound ID>  (232) 
28654

>  <name>  (232) 
QZUKDBLWCLSBAO-UHFFFAOYSA-N

>  <ref_pdb>  (232) 
z0364a

>  <ref_mols>  (232) 
z0364a,z0637a

>  <csv_name>  (232) 
RdRp_knitwork_green_site_rna_tunnel_pure_split4000_batch011.csv

>  <fragmenstein_runtime>  (232) 
2.002511

>  <tags>  (232) 
['Fragmenstein placed']

>  <original ID>  (232) 
QZUKDBLWCLSBAO-UHFFFAOYSA-N

>  <fragmenstein_error>  (232) 
None

>  <original SMILES>  (232) 
c1ccc(-c2cccc3c2CCCN3)nc1

>  <inchikey>  (232) 
QZUKDBLWCLSBAO-UHFFFAOYSA-N

>  <SLURM_JOB_NAME>  (232) 
BulkDock.place:Flavi_NS5_RdRp:RdRp_knitwork_green_site_rna_tunnel_pure_split4000_batch011

>  <scratch_subdir>  (232) 
/opt/xchem-fragalysis-2/maxwin/BulkDock/SCRATCH/217082/C28654-P118

>  <alias>  (232) 
None

>  <SLURM_JOB_ID>  (232) 
217082

>  <exports>  (232) 
['/opt/xchem-fragalysis-2/maxwin/BulkDock/OUTPUTS/RdRp_knitwork_green_site_rna_tunnel_pure_split4000_batch011_217082.sdf']

$$$$
106054
     RDKit          3D

 16 18  0  0  0  0  0  0  0  0999 V2000
  -30.6595  -32.4278  -15.9830 C   0  0  0  0  0  0  0  0  0  0  0  0
  -30.6285  -32.8718  -17.2950 C   0  0  0  0  0  0  0  0  0  0  0  0
  -29.9449  -32.1236  -18.2543 C   0  0  0  0  0  0  0  0  0  0  0  0
  -29.2941  -30.9425  -17.8837 C   0  0  0  0  0  0  0  0  0  0  0  0
  -28.5179  -30.0982  -18.8320 C   0  0  0  0  0  0  0  0  0  0  0  0
  -28.5836  -30.2619  -20.2258 C   0  0  0  0  0  0  0  0  0  0  0  0
  -27.7802  -29.5124  -21.0965 C   0  0  0  0  0  0  0  0  0  0  0  0
  -26.9013  -28.5439  -20.6121 C   0  0  0  0  0  0  0  0  0  0  0  0
  -26.8388  -28.3356  -19.2293 C   0  0  0  0  0  0  0  0  0  0  0  0
  -27.6468  -29.0954  -18.3626 C   0  0  0  0  0  0  0  0  0  0  0  0
  -25.9220  -27.2759  -18.6735 C   0  0  0  0  0  0  0  0  0  0  0  0
  -24.7211  -27.0535  -19.5785 C   0  0  0  0  0  0  0  0  0  0  0  0
  -25.1943  -26.8295  -21.0012 C   0  0  0  0  0  0  0  0  0  0  0  0
  -25.9859  -27.9501  -21.4752 N   0  0  0  0  0  0  0  0  0  0  0  0
  -29.3083  -30.5195  -16.5900 N   0  0  0  0  0  0  0  0  0  0  0  0
  -29.9893  -31.2574  -15.6831 C   0  0  0  0  0  0  0  0  0  0  0  0
  1  2  2  0
  2  3  1  0
  3  4  2  0
  4  5  1  0
  5  6  2  0
  6  7  1  0
  7  8  2  0
  8  9  1  0
  9 10  2  0
  9 11  1  0
 11 12  1  0
 12 13  1  0
 13 14  1  0
  4 15  1  0
 15 16  2  0
 16  1  1  0
 10  5  1  0
 14  8  1  0
M  END
>  <HIPPO Pose ID>  (233) 
106054

>  <fragmenstein_outcome>  (233) 
acceptable

>  <energy_score>  (233) 
-21.512059

>  <distance_score>  (233) 
0.654578

>  <fragmenstein_mode>  (233) 
expansion

>  <HIPPO Compound ID>  (233) 
31378

>  <name>  (233) 
HBKGMHMQQLXNRH-UHFFFAOYSA-N

>  <ref_pdb>  (233) 
z0364a

>  <ref_mols>  (233) 
z0364a,z0637a

>  <csv_name>  (233) 
RdRp_knitwork_green_site_rna_tunnel_pure_split4000_batch011.csv

>  <fragmenstein_runtime>  (233) 
2.285523

>  <tags>  (233) 
['Fragmenstein placed']

>  <original ID>  (233) 
HBKGMHMQQLXNRH-UHFFFAOYSA-N

>  <fragmenstein_error>  (233) 
None

>  <original SMILES>  (233) 
c1ccc(-c2ccc3c(c2)CCCN3)nc1

>  <inchikey>  (233) 
HBKGMHMQQLXNRH-UHFFFAOYSA-N

>  <SLURM_JOB_NAME>  (233) 
BulkDock.place:Flavi_NS5_RdRp:RdRp_knitwork_green_site_rna_tunnel_pure_split4000_batch011

>  <scratch_subdir>  (233) 
/opt/xchem-fragalysis-2/maxwin/BulkDock/SCRATCH/217082/C31378-P118

>  <alias>  (233) 
None

>  <SLURM_JOB_ID>  (233) 
217082

>  <exports>  (233) 
['/opt/xchem-fragalysis-2/maxwin/BulkDock/OUTPUTS/RdRp_knitwork_green_site_rna_tunnel_pure_split4000_batch011_217082.sdf']

$$$$
106073
     RDKit          3D

 20 22  0  0  0  0  0  0  0  0999 V2000
  -24.6528  -33.1465  -24.5297 O   0  0  0  0  0  0  0  0  0  0  0  0
  -23.4566  -33.1334  -24.2826 C   0  0  0  0  0  0  0  0  0  0  0  0
  -22.3648  -33.7875  -25.0873 C   0  0  0  0  0  0  0  0  0  0  0  0
  -21.1144  -33.0834  -24.5711 C   0  0  0  0  0  0  0  0  0  0  0  0
  -21.4482  -32.7410  -23.1321 C   0  0  0  0  0  0  0  0  0  0  0  0
  -22.8736  -32.5473  -23.1771 N   0  0  0  0  0  0  0  0  0  0  0  0
  -23.5959  -31.7478  -22.2108 C   0  0  0  0  0  0  0  0  0  0  0  0
  -24.4239  -32.5321  -21.1801 C   0  0  2  0  0  0  0  0  0  0  0  0
  -25.1057  -33.6559  -21.7529 O   0  0  0  0  0  0  0  0  0  0  0  0
  -25.4303  -31.5728  -20.4921 C   0  0  0  0  0  0  0  0  0  0  0  0
  -26.7130  -31.4511  -21.2063 N   0  0  0  0  0  0  0  0  0  0  0  0
  -27.5320  -30.2669  -20.8261 C   0  0  0  0  0  0  0  0  0  0  0  0
  -27.9216  -30.0922  -19.3379 C   0  0  0  0  0  0  0  0  0  0  0  0
  -29.2470  -30.1937  -18.9039 C   0  0  0  0  0  0  0  0  0  0  0  0
  -29.5587  -30.0720  -17.5498 C   0  0  0  0  0  0  0  0  0  0  0  0
  -28.5443  -29.8437  -16.6369 C   0  0  0  0  0  0  0  0  0  0  0  0
  -27.2577  -29.7396  -17.1238 C   0  0  0  0  0  0  0  0  0  0  0  0
  -26.9374  -29.8399  -18.4324 N   0  0  0  0  0  0  0  0  0  0  0  0
  -27.2905  -29.0069  -21.6191 C   0  0  0  0  0  0  0  0  0  0  0  0
  -28.5188  -29.8006  -21.8871 C   0  0  0  0  0  0  0  0  0  0  0  0
  1  2  2  0
  2  3  1  0
  3  4  1  0
  4  5  1  0
  5  6  1  0
  6  7  1  0
  7  8  1  0
  8  9  1  6
  8 10  1  0
 10 11  1  0
 11 12  1  0
 12 13  1  0
 13 14  2  0
 14 15  1  0
 15 16  2  0
 16 17  1  0
 17 18  2  0
 12 19  1  0
 19 20  1  0
  6  2  1  0
 20 12  1  0
 18 13  1  0
M  END
>  <HIPPO Pose ID>  (234) 
106073

>  <fragmenstein_outcome>  (234) 
acceptable

>  <energy_score>  (234) 
-30.697607

>  <distance_score>  (234) 
0.534366

>  <fragmenstein_mode>  (234) 
expansion

>  <HIPPO Compound ID>  (234) 
4109

>  <name>  (234) 
WDWYXIDACVPHLO-GFCCVEGCSA-N

>  <ref_pdb>  (234) 
z0215a

>  <ref_mols>  (234) 
z0215a,z1018a

>  <csv_name>  (234) 
RdRp_knitwork_green_site_rna_tunnel_pure_split4000_batch010.csv

>  <fragmenstein_runtime>  (234) 
4.523965

>  <tags>  (234) 
['Fragmenstein placed']

>  <original ID>  (234) 
WDWYXIDACVPHLO-GFCCVEGCSA-N

>  <fragmenstein_error>  (234) 
None

>  <original SMILES>  (234) 
O=C1CCCN1C[C@H](O)CNC1(c2ccccn2)CC1

>  <inchikey>  (234) 
WDWYXIDACVPHLO-GFCCVEGCSA-N

>  <SLURM_JOB_NAME>  (234) 
BulkDock.place:Flavi_NS5_RdRp:RdRp_knitwork_green_site_rna_tunnel_pure_split4000_batch010

>  <scratch_subdir>  (234) 
/opt/xchem-fragalysis-2/maxwin/BulkDock/SCRATCH/217081/C4109-P104

>  <alias>  (234) 
None

>  <SLURM_JOB_ID>  (234) 
217081

>  <exports>  (234) 
['/opt/xchem-fragalysis-2/maxwin/BulkDock/OUTPUTS/RdRp_knitwork_green_site_rna_tunnel_pure_split4000_batch010_217081.sdf']

$$$$
106109
     RDKit          3D

 13 14  0  0  0  0  0  0  0  0999 V2000
  -30.7899  -30.6304  -20.5958 C   0  0  0  0  0  0  0  0  0  0  0  0
  -29.3040  -30.3545  -20.8234 C   0  0  0  0  0  0  0  0  0  0  0  0
  -28.9053  -29.0442  -20.1645 C   0  0  1  0  0  0  0  0  0  0  0  0
  -29.0743  -29.2004  -18.7227 N   0  0  0  0  0  0  0  0  0  0  0  0
  -27.8853  -29.4812  -18.0900 C   0  0  0  0  0  0  0  0  0  0  0  0
  -27.7528  -29.7738  -16.9163 O   0  0  0  0  0  0  0  0  0  0  0  0
  -26.8017  -29.3904  -19.1219 C   0  0  0  0  0  0  0  0  0  0  0  0
  -27.4619  -28.5491  -20.2028 C   0  0  1  0  0  0  0  0  0  0  0  0
  -26.7254  -28.5203  -21.4972 C   0  0  0  0  0  0  0  0  0  0  0  0
  -26.7672  -29.4322  -22.4438 N   0  0  0  0  0  0  0  0  0  0  0  0
  -25.9309  -29.0635  -23.4876 C   0  0  0  0  0  0  0  0  0  0  0  0
  -25.2358  -27.8863  -23.3147 C   0  0  0  0  0  0  0  0  0  0  0  0
  -25.6703  -27.1786  -21.8197 S   0  0  0  0  0  0  0  0  0  0  0  0
  1  2  1  0
  3  2  1  6
  3  4  1  0
  4  5  1  0
  5  6  2  0
  5  7  1  0
  7  8  1  0
  8  9  1  6
  9 10  2  0
 10 11  1  0
 11 12  2  0
 12 13  1  0
  8  3  1  0
 13  9  1  0
M  END
>  <HIPPO Pose ID>  (235) 
106109

>  <fragmenstein_outcome>  (235) 
acceptable

>  <energy_score>  (235) 
-106.297833

>  <distance_score>  (235) 
0.909866

>  <fragmenstein_mode>  (235) 
expansion

>  <HIPPO Compound ID>  (235) 
40909

>  <name>  (235) 
XOODEHLKBIONQI-RNFRBKRXSA-N

>  <ref_pdb>  (235) 
z0496a

>  <ref_mols>  (235) 
z0496a,z1018a

>  <csv_name>  (235) 
RdRp_knitwork_green_site_rna_tunnel_pure_split4000_batch012.csv

>  <fragmenstein_runtime>  (235) 
2.03983

>  <tags>  (235) 
['Fragmenstein placed']

>  <original ID>  (235) 
XOODEHLKBIONQI-RNFRBKRXSA-N

>  <fragmenstein_error>  (235) 
None

>  <original SMILES>  (235) 
CC[C@H]1NC(=O)C[C@H]1c1nccs1

>  <inchikey>  (235) 
XOODEHLKBIONQI-RNFRBKRXSA-N

>  <SLURM_JOB_NAME>  (235) 
BulkDock.place:Flavi_NS5_RdRp:RdRp_knitwork_green_site_rna_tunnel_pure_split4000_batch012

>  <scratch_subdir>  (235) 
/opt/xchem-fragalysis-2/maxwin/BulkDock/SCRATCH/217083/C40909-P136

>  <alias>  (235) 
None

>  <SLURM_JOB_ID>  (235) 
217083

>  <exports>  (235) 
['/opt/xchem-fragalysis-2/maxwin/BulkDock/OUTPUTS/RdRp_knitwork_green_site_rna_tunnel_pure_split4000_batch012_217083.sdf']

$$$$
106666
     RDKit          3D

 22 25  0  0  0  0  0  0  0  0999 V2000
  -19.4284  -33.2237  -20.0964 C   0  0  0  0  0  0  0  0  0  0  0  0
  -20.1440  -32.2514  -20.7955 C   0  0  0  0  0  0  0  0  0  0  0  0
  -21.3251  -32.5768  -21.4838 C   0  0  0  0  0  0  0  0  0  0  0  0
  -21.7897  -33.9091  -21.4776 C   0  0  0  0  0  0  0  0  0  0  0  0
  -22.8788  -34.6523  -22.0506 C   0  0  0  0  0  0  0  0  0  0  0  0
  -24.0021  -34.2346  -22.9404 C   0  0  0  0  0  0  0  0  0  0  0  0
  -23.8184  -33.0962  -23.8084 N   0  0  0  0  0  0  0  0  0  0  0  0
  -24.1420  -31.8712  -23.3997 C   0  0  0  0  0  0  0  0  0  0  0  0
  -23.7792  -30.7143  -23.8966 N   0  0  0  0  0  0  0  0  0  0  0  0
  -24.2297  -29.7479  -23.0319 N   0  0  0  0  0  0  0  0  0  0  0  0
  -24.8433  -30.3987  -22.0702 C   0  0  0  0  0  0  0  0  0  0  0  0
  -25.4930  -29.9325  -20.8764 C   0  0  0  0  0  0  0  0  0  0  0  0
  -25.7228  -28.5829  -20.6846 C   0  0  0  0  0  0  0  0  0  0  0  0
  -26.3181  -28.1612  -19.5175 C   0  0  0  0  0  0  0  0  0  0  0  0
  -26.7023  -29.0082  -18.5517 N   0  0  0  0  0  0  0  0  0  0  0  0
  -26.5046  -30.3223  -18.7737 C   0  0  0  0  0  0  0  0  0  0  0  0
  -25.9031  -30.8270  -19.8998 C   0  0  0  0  0  0  0  0  0  0  0  0
  -24.8331  -31.7490  -22.2439 O   0  0  0  0  0  0  0  0  0  0  0  0
  -22.7111  -35.9500  -21.5990 C   0  0  0  0  0  0  0  0  0  0  0  0
  -21.6049  -36.0655  -20.8340 O   0  0  0  0  0  0  0  0  0  0  0  0
  -21.0418  -34.8363  -20.7563 C   0  0  0  0  0  0  0  0  0  0  0  0
  -19.8713  -34.5471  -20.0577 C   0  0  0  0  0  0  0  0  0  0  0  0
  1  2  2  0
  2  3  1  0
  3  4  2  0
  4  5  1  0
  5  6  1  0
  6  7  1  0
  7  8  1  0
  8  9  2  0
  9 10  1  0
 10 11  2  0
 11 12  1  0
 12 13  2  0
 13 14  1  0
 14 15  2  0
 15 16  1  0
 16 17  2  0
 11 18  1  0
  5 19  2  0
 19 20  1  0
 20 21  1  0
 21 22  2  0
 22  1  1  0
 21  4  1  0
 18  8  1  0
 17 12  1  0
M  END
>  <HIPPO Pose ID>  (236) 
106666

>  <fragmenstein_outcome>  (236) 
acceptable

>  <energy_score>  (236) 
-49.601641

>  <distance_score>  (236) 
1.400394

>  <fragmenstein_mode>  (236) 
expansion

>  <HIPPO Compound ID>  (236) 
34426

>  <name>  (236) 
XEQQWXZOYCSSPP-UHFFFAOYSA-N

>  <ref_pdb>  (236) 
3vws-b

>  <ref_mols>  (236) 
d0472b,z0411a,3vws-b

>  <csv_name>  (236) 
RdRp_knitwork_green_site_rna_tunnel_pure_split4000_batch007.csv

>  <fragmenstein_runtime>  (236) 
4.787788

>  <tags>  (236) 
['Fragmenstein placed']

>  <original ID>  (236) 
XEQQWXZOYCSSPP-UHFFFAOYSA-N

>  <fragmenstein_error>  (236) 
None

>  <original SMILES>  (236) 
c1ccc2c(CNc3nnc(-c4ccncc4)o3)coc2c1

>  <inchikey>  (236) 
XEQQWXZOYCSSPP-UHFFFAOYSA-N

>  <SLURM_JOB_NAME>  (236) 
BulkDock.place:Flavi_NS5_RdRp:RdRp_knitwork_green_site_rna_tunnel_pure_split4000_batch007

>  <scratch_subdir>  (236) 
/opt/xchem-fragalysis-2/maxwin/BulkDock/SCRATCH/217078/C34426-P217

>  <alias>  (236) 
None

>  <SLURM_JOB_ID>  (236) 
217078

>  <exports>  (236) 
['/opt/xchem-fragalysis-2/maxwin/BulkDock/OUTPUTS/RdRp_knitwork_green_site_rna_tunnel_pure_split4000_batch007_217078.sdf']

$$$$
106889
     RDKit          3D

 23 25  0  0  0  0  0  0  0  0999 V2000
  -24.1600  -32.9052  -22.5175 C   0  0  0  0  0  0  0  0  0  0  0  0
  -23.2519  -33.6888  -21.6451 C   0  0  0  0  0  0  0  0  0  0  0  0
  -23.5592  -34.8219  -20.9056 C   0  0  0  0  0  0  0  0  0  0  0  0
  -24.8152  -35.5776  -20.6667 C   0  0  0  0  0  0  0  0  0  0  0  0
  -25.6486  -34.8785  -19.7145 N   0  0  0  0  0  0  0  0  0  0  0  0
  -26.1536  -35.3124  -18.3118 C   0  0  0  0  0  0  0  0  0  0  0  0
  -25.9150  -36.2428  -17.6994 O   0  0  0  0  0  0  0  0  0  0  0  0
  -27.1260  -34.1330  -18.0117 N   0  0  0  0  0  0  0  0  0  0  0  0
  -28.0608  -33.9434  -16.9226 C   0  0  0  0  0  0  0  0  0  0  0  0
  -27.6922  -32.7837  -15.9943 C   0  0  0  0  0  0  0  0  0  0  0  0
  -28.6400  -31.5831  -16.0997 C   0  0  0  0  0  0  0  0  0  0  0  0
  -28.5693  -30.9306  -17.3909 N   0  0  0  0  0  0  0  0  0  0  0  0
  -27.6234  -30.0388  -17.8079 C   0  0  0  0  0  0  0  0  0  0  0  0
  -27.9500  -29.7198  -19.1048 C   0  0  0  0  0  0  0  0  0  0  0  0
  -29.1202  -30.4542  -19.3676 C   0  0  0  0  0  0  0  0  0  0  0  0
  -29.4866  -31.2119  -18.3329 N   0  0  0  0  0  0  0  0  0  0  0  0
  -22.4394  -35.2939  -20.2794 O   0  0  0  0  0  0  0  0  0  0  0  0
  -21.4363  -34.4094  -20.5240 C   0  0  0  0  0  0  0  0  0  0  0  0
  -20.1396  -34.4983  -20.0193 C   0  0  0  0  0  0  0  0  0  0  0  0
  -19.2749  -33.4449  -20.3302 C   0  0  0  0  0  0  0  0  0  0  0  0
  -19.7063  -32.3711  -21.1126 C   0  0  0  0  0  0  0  0  0  0  0  0
  -21.0022  -32.3356  -21.6469 C   0  0  0  0  0  0  0  0  0  0  0  0
  -21.8901  -33.3823  -21.3388 C   0  0  0  0  0  0  0  0  0  0  0  0
  1  2  1  0
  2  3  2  0
  3  4  1  0
  4  5  1  0
  5  6  1  0
  6  7  2  0
  6  8  1  0
  8  9  1  0
  9 10  1  0
 10 11  1  0
 11 12  1  0
 12 13  1  0
 13 14  2  0
 14 15  1  0
 15 16  2  0
  3 17  1  0
 17 18  1  0
 18 19  2  0
 19 20  1  0
 20 21  2  0
 21 22  1  0
 22 23  2  0
 23  2  1  0
 16 12  1  0
 23 18  1  0
M  END
>  <HIPPO Pose ID>  (237) 
106889

>  <fragmenstein_outcome>  (237) 
acceptable

>  <energy_score>  (237) 
-4.168453

>  <distance_score>  (237) 
0.922898

>  <fragmenstein_mode>  (237) 
expansion

>  <HIPPO Compound ID>  (237) 
39527

>  <name>  (237) 
KMEBORKTKJEYKF-UHFFFAOYSA-N

>  <ref_pdb>  (237) 
z0653a

>  <ref_mols>  (237) 
z0653a,3vws-b

>  <csv_name>  (237) 
RdRp_knitwork_green_site_rna_tunnel_pure_split4000_batch013.csv

>  <fragmenstein_runtime>  (237) 
4.685663

>  <tags>  (237) 
['Fragmenstein placed']

>  <original ID>  (237) 
KMEBORKTKJEYKF-UHFFFAOYSA-N

>  <fragmenstein_error>  (237) 
None

>  <original SMILES>  (237) 
Cc1c(CNC(=O)NCCCn2cccn2)oc2ccccc12

>  <inchikey>  (237) 
KMEBORKTKJEYKF-UHFFFAOYSA-N

>  <SLURM_JOB_NAME>  (237) 
BulkDock.place:Flavi_NS5_RdRp:RdRp_knitwork_green_site_rna_tunnel_pure_split4000_batch013

>  <scratch_subdir>  (237) 
/opt/xchem-fragalysis-2/maxwin/BulkDock/SCRATCH/217084/C39527-P153

>  <alias>  (237) 
None

>  <SLURM_JOB_ID>  (237) 
217084

>  <exports>  (237) 
['/opt/xchem-fragalysis-2/maxwin/BulkDock/OUTPUTS/RdRp_knitwork_green_site_rna_tunnel_pure_split4000_batch013_217084.sdf']

$$$$
106914
     RDKit          3D

 22 24  0  0  0  0  0  0  0  0999 V2000
  -27.9636  -29.5781  -22.7240 O   0  0  0  0  0  0  0  0  0  0  0  0
  -27.5190  -30.2624  -21.8089 C   0  0  0  0  0  0  0  0  0  0  0  0
  -26.3659  -30.9854  -22.0034 O   0  0  0  0  0  0  0  0  0  0  0  0
  -25.7942  -31.9203  -21.0600 C   0  0  0  0  0  0  0  0  0  0  0  0
  -24.7445  -32.7709  -21.7516 C   0  0  0  0  0  0  0  0  0  0  0  0
  -23.6012  -31.9108  -22.2902 C   0  0  0  0  0  0  0  0  0  0  0  0
  -22.7785  -32.6390  -23.2306 N   0  0  0  0  0  0  0  0  0  0  0  0
  -21.3494  -32.7474  -23.0856 C   0  0  0  0  0  0  0  0  0  0  0  0
  -20.8664  -33.0645  -24.4884 C   0  0  0  0  0  0  0  0  0  0  0  0
  -22.0638  -33.7065  -25.1747 C   0  0  0  0  0  0  0  0  0  0  0  0
  -23.2314  -33.0854  -24.4593 C   0  0  0  0  0  0  0  0  0  0  0  0
  -24.3752  -33.0270  -24.8832 O   0  0  0  0  0  0  0  0  0  0  0  0
  -28.1313  -30.2532  -20.5107 C   0  0  0  0  0  0  0  0  0  0  0  0
  -29.4854  -30.0458  -20.1687 C   0  0  0  0  0  0  0  0  0  0  0  0
  -29.6671  -29.9554  -18.8486 N   0  0  0  0  0  0  0  0  0  0  0  0
  -28.4194  -30.0163  -18.3609 N   0  0  0  0  0  0  0  0  0  0  0  0
  -28.1267  -29.4855  -17.0589 C   0  0  0  0  0  0  0  0  0  0  0  0
  -29.0769  -29.9590  -15.9957 C   0  0  0  0  0  0  0  0  0  0  0  0
  -28.2573  -29.9743  -14.7385 C   0  0  0  0  0  0  0  0  0  0  0  0
  -26.7830  -29.9632  -15.0847 C   0  0  0  0  0  0  0  0  0  0  0  0
  -26.6965  -29.7342  -16.5651 C   0  0  0  0  0  0  0  0  0  0  0  0
  -27.4857  -30.2797  -19.3009 C   0  0  0  0  0  0  0  0  0  0  0  0
  1  2  2  0
  2  3  1  0
  3  4  1  0
  4  5  1  0
  5  6  1  0
  6  7  1  0
  7  8  1  0
  8  9  1  0
  9 10  1  0
 10 11  1  0
 11 12  2  0
  2 13  1  0
 13 14  1  0
 14 15  2  0
 15 16  1  0
 16 17  1  0
 17 18  1  0
 18 19  1  0
 19 20  1  0
 20 21  1  0
 16 22  1  0
 11  7  1  0
 22 13  2  0
 21 17  1  0
M  END
>  <HIPPO Pose ID>  (238) 
106914

>  <fragmenstein_outcome>  (238) 
acceptable

>  <energy_score>  (238) 
-8.270948

>  <distance_score>  (238) 
0.943699

>  <fragmenstein_mode>  (238) 
expansion

>  <HIPPO Compound ID>  (238) 
41396

>  <name>  (238) 
LJVXGPUENRKXIW-UHFFFAOYSA-N

>  <ref_pdb>  (238) 
z1018a

>  <ref_mols>  (238) 
z0936a,z1018a

>  <csv_name>  (238) 
RdRp_knitwork_green_site_rna_tunnel_pure_split4000_batch016.csv

>  <fragmenstein_runtime>  (238) 
3.705146

>  <tags>  (238) 
['Fragmenstein placed']

>  <original ID>  (238) 
LJVXGPUENRKXIW-UHFFFAOYSA-N

>  <fragmenstein_error>  (238) 
None

>  <original SMILES>  (238) 
O=C(OCCCN1CCCC1=O)c1cnn(C2CCCC2)c1

>  <inchikey>  (238) 
LJVXGPUENRKXIW-UHFFFAOYSA-N

>  <SLURM_JOB_NAME>  (238) 
BulkDock.place:Flavi_NS5_RdRp:RdRp_knitwork_green_site_rna_tunnel_pure_split4000_batch016

>  <scratch_subdir>  (238) 
/opt/xchem-fragalysis-2/maxwin/BulkDock/SCRATCH/217087/C41396-P206

>  <alias>  (238) 
None

>  <SLURM_JOB_ID>  (238) 
217087

>  <exports>  (238) 
['/opt/xchem-fragalysis-2/maxwin/BulkDock/OUTPUTS/RdRp_knitwork_green_site_rna_tunnel_pure_split4000_batch016_217087.sdf']

$$$$
106935
     RDKit          3D

 22 24  0  0  0  0  0  0  0  0999 V2000
  -25.3023  -30.5414  -20.4434 O   0  0  0  0  0  0  0  0  0  0  0  0
  -25.7360  -31.4234  -21.1688 C   0  0  0  0  0  0  0  0  0  0  0  0
  -24.8872  -32.5721  -21.6243 C   0  0  0  0  0  0  0  0  0  0  0  0
  -23.5773  -31.9586  -22.1193 C   0  0  0  0  0  0  0  0  0  0  0  0
  -22.8495  -32.7883  -23.0590 N   0  0  0  0  0  0  0  0  0  0  0  0
  -21.4061  -32.8449  -23.0244 C   0  0  0  0  0  0  0  0  0  0  0  0
  -20.9969  -33.1098  -24.4612 C   0  0  0  0  0  0  0  0  0  0  0  0
  -22.2285  -33.7276  -25.1041 C   0  0  0  0  0  0  0  0  0  0  0  0
  -23.3492  -33.1125  -24.3121 C   0  0  0  0  0  0  0  0  0  0  0  0
  -24.4931  -32.9490  -24.7088 O   0  0  0  0  0  0  0  0  0  0  0  0
  -26.9697  -31.4588  -21.7377 O   0  0  0  0  0  0  0  0  0  0  0  0
  -27.7853  -30.2813  -21.5977 C   0  0  0  0  0  0  0  0  0  0  0  0
  -28.5548  -30.2147  -20.3520 C   0  0  0  0  0  0  0  0  0  0  0  0
  -29.9424  -30.1446  -20.1290 C   0  0  0  0  0  0  0  0  0  0  0  0
  -30.0581  -29.9194  -18.7792 C   0  0  0  0  0  0  0  0  0  0  0  0
  -28.7865  -29.8807  -18.3000 N   0  0  0  0  0  0  0  0  0  0  0  0
  -28.3453  -29.4321  -17.0134 C   0  0  0  0  0  0  0  0  0  0  0  0
  -26.8630  -29.7019  -16.7092 C   0  0  0  0  0  0  0  0  0  0  0  0
  -26.7732  -29.9754  -15.2304 C   0  0  0  0  0  0  0  0  0  0  0  0
  -28.2012  -30.0424  -14.7292 C   0  0  0  0  0  0  0  0  0  0  0  0
  -29.1430  -30.0317  -15.8949 C   0  0  0  0  0  0  0  0  0  0  0  0
  -27.8687  -30.0929  -19.2233 N   0  0  0  0  0  0  0  0  0  0  0  0
  1  2  2  0
  2  3  1  0
  3  4  1  0
  4  5  1  0
  5  6  1  0
  6  7  1  0
  7  8  1  0
  8  9  1  0
  9 10  2  0
  2 11  1  0
 11 12  1  0
 12 13  1  0
 13 14  1  0
 14 15  2  0
 15 16  1  0
 16 17  1  0
 17 18  1  0
 18 19  1  0
 19 20  1  0
 20 21  1  0
 16 22  1  0
  9  5  1  0
 22 13  2  0
 21 17  1  0
M  END
>  <HIPPO Pose ID>  (239) 
106935

>  <fragmenstein_outcome>  (239) 
acceptable

>  <energy_score>  (239) 
-211.14155

>  <distance_score>  (239) 
0.94143

>  <fragmenstein_mode>  (239) 
expansion

>  <HIPPO Compound ID>  (239) 
41398

>  <name>  (239) 
HPXZLNSFKHIRGK-UHFFFAOYSA-N

>  <ref_pdb>  (239) 
z1018a

>  <ref_mols>  (239) 
z0936a,z1018a

>  <csv_name>  (239) 
RdRp_knitwork_green_site_rna_tunnel_pure_split4000_batch016.csv

>  <fragmenstein_runtime>  (239) 
4.278095

>  <tags>  (239) 
['Fragmenstein placed']

>  <original ID>  (239) 
HPXZLNSFKHIRGK-UHFFFAOYSA-N

>  <fragmenstein_error>  (239) 
None

>  <original SMILES>  (239) 
O=C(CCN1CCCC1=O)OCc1ccn(C2CCCC2)n1

>  <inchikey>  (239) 
HPXZLNSFKHIRGK-UHFFFAOYSA-N

>  <SLURM_JOB_NAME>  (239) 
BulkDock.place:Flavi_NS5_RdRp:RdRp_knitwork_green_site_rna_tunnel_pure_split4000_batch016

>  <scratch_subdir>  (239) 
/opt/xchem-fragalysis-2/maxwin/BulkDock/SCRATCH/217087/C41398-P206

>  <alias>  (239) 
None

>  <SLURM_JOB_ID>  (239) 
217087

>  <exports>  (239) 
['/opt/xchem-fragalysis-2/maxwin/BulkDock/OUTPUTS/RdRp_knitwork_green_site_rna_tunnel_pure_split4000_batch016_217087.sdf']

$$$$
106992
     RDKit          3D

 22 24  0  0  0  0  0  0  0  0999 V2000
  -25.9153  -30.5769  -23.1172 O   0  0  0  0  0  0  0  0  0  0  0  0
  -26.3396  -30.7419  -22.0406 C   0  0  0  0  0  0  0  0  0  0  0  0
  -27.6605  -30.0139  -21.7153 C   0  0  0  0  0  0  0  0  0  0  0  0
  -28.3278  -30.2069  -20.4265 C   0  0  0  0  0  0  0  0  0  0  0  0
  -29.7134  -30.1739  -20.1613 C   0  0  0  0  0  0  0  0  0  0  0  0
  -29.7977  -30.0834  -18.7973 C   0  0  0  0  0  0  0  0  0  0  0  0
  -28.5101  -30.0673  -18.3487 N   0  0  0  0  0  0  0  0  0  0  0  0
  -28.0616  -29.5339  -17.0937 C   0  0  0  0  0  0  0  0  0  0  0  0
  -26.6113  -29.8435  -16.7232 C   0  0  0  0  0  0  0  0  0  0  0  0
  -26.5842  -29.9660  -15.2209 C   0  0  0  0  0  0  0  0  0  0  0  0
  -28.0258  -30.1195  -14.7769 C   0  0  0  0  0  0  0  0  0  0  0  0
  -28.9421  -29.9497  -15.9490 C   0  0  0  0  0  0  0  0  0  0  0  0
  -27.6060  -30.2490  -19.3088 N   0  0  0  0  0  0  0  0  0  0  0  0
  -25.8183  -31.6119  -20.8875 N   0  0  0  0  0  0  0  0  0  0  0  0
  -24.7106  -32.5456  -20.8380 C   0  0  0  0  0  0  0  0  0  0  0  0
  -23.4366  -31.9755  -21.4965 C   0  0  0  0  0  0  0  0  0  0  0  0
  -22.8270  -32.7809  -22.5519 N   0  0  0  0  0  0  0  0  0  0  0  0
  -21.3961  -32.7310  -22.7532 C   0  0  0  0  0  0  0  0  0  0  0  0
  -21.2006  -32.9592  -24.2383 C   0  0  0  0  0  0  0  0  0  0  0  0
  -22.4463  -33.7133  -24.6669 C   0  0  0  0  0  0  0  0  0  0  0  0
  -23.4876  -33.2186  -23.6949 C   0  0  0  0  0  0  0  0  0  0  0  0
  -24.6893  -33.2601  -23.9025 O   0  0  0  0  0  0  0  0  0  0  0  0
  1  2  2  0
  2  3  1  0
  3  4  1  0
  4  5  1  0
  5  6  2  0
  6  7  1  0
  7  8  1  0
  8  9  1  0
  9 10  1  0
 10 11  1  0
 11 12  1  0
  7 13  1  0
  2 14  1  0
 14 15  1  0
 15 16  1  0
 16 17  1  0
 17 18  1  0
 18 19  1  0
 19 20  1  0
 20 21  1  0
 21 22  2  0
 13  4  2  0
 21 17  1  0
 12  8  1  0
M  END
>  <HIPPO Pose ID>  (240) 
106992

>  <fragmenstein_outcome>  (240) 
acceptable

>  <energy_score>  (240) 
-19.142453

>  <distance_score>  (240) 
0.892855

>  <fragmenstein_mode>  (240) 
expansion

>  <HIPPO Compound ID>  (240) 
41552

>  <name>  (240) 
MOWNOSLAQYMJTK-UHFFFAOYSA-N

>  <ref_pdb>  (240) 
z1018a

>  <ref_mols>  (240) 
z0936a,z1018a

>  <csv_name>  (240) 
RdRp_knitwork_green_site_rna_tunnel_pure_split4000_batch016.csv

>  <fragmenstein_runtime>  (240) 
4.387921

>  <tags>  (240) 
['Fragmenstein placed']

>  <original ID>  (240) 
MOWNOSLAQYMJTK-UHFFFAOYSA-N

>  <fragmenstein_error>  (240) 
None

>  <original SMILES>  (240) 
O=C(Cc1ccn(C2CCCC2)n1)NCCN1CCCC1=O

>  <inchikey>  (240) 
MOWNOSLAQYMJTK-UHFFFAOYSA-N

>  <SLURM_JOB_NAME>  (240) 
BulkDock.place:Flavi_NS5_RdRp:RdRp_knitwork_green_site_rna_tunnel_pure_split4000_batch016

>  <scratch_subdir>  (240) 
/opt/xchem-fragalysis-2/maxwin/BulkDock/SCRATCH/217087/C41552-P206

>  <alias>  (240) 
None

>  <SLURM_JOB_ID>  (240) 
217087

>  <exports>  (240) 
['/opt/xchem-fragalysis-2/maxwin/BulkDock/OUTPUTS/RdRp_knitwork_green_site_rna_tunnel_pure_split4000_batch016_217087.sdf']

$$$$
107022
     RDKit          3D

 24 26  0  0  0  0  0  0  0  0999 V2000
  -20.8240  -32.6438  -20.0696 C   0  0  0  0  0  0  0  0  0  0  0  0
  -22.0081  -31.9268  -20.7129 C   0  0  0  0  0  0  0  0  0  0  0  0
  -22.8398  -32.8180  -21.6644 C   0  0  1  0  0  0  0  0  0  0  0  0
  -24.3379  -32.6830  -21.3964 C   0  0  0  0  0  0  0  0  0  0  0  0
  -24.9966  -31.3272  -21.6201 C   0  0  0  0  0  0  0  0  0  0  0  0
  -26.4390  -31.4836  -21.8256 N   0  0  0  0  0  0  0  0  0  0  0  0
  -27.2446  -30.2694  -21.6883 C   0  0  1  0  0  0  0  0  0  0  0  0
  -28.3366  -30.2729  -22.7426 C   0  0  0  0  0  0  0  0  0  0  0  0
  -27.8760  -30.1952  -20.3291 C   0  0  0  0  0  0  0  0  0  0  0  0
  -29.2467  -30.0288  -19.9931 C   0  0  0  0  0  0  0  0  0  0  0  0
  -29.4493  -29.9111  -18.6837 N   0  0  0  0  0  0  0  0  0  0  0  0
  -28.2105  -29.9798  -18.1774 N   0  0  0  0  0  0  0  0  0  0  0  0
  -27.9804  -29.5070  -16.8457 C   0  0  0  0  0  0  0  0  0  0  0  0
  -29.0825  -29.8966  -15.8875 C   0  0  0  0  0  0  0  0  0  0  0  0
  -28.4484  -29.5842  -14.5640 C   0  0  0  0  0  0  0  0  0  0  0  0
  -27.0185  -30.0863  -14.6996 C   0  0  0  0  0  0  0  0  0  0  0  0
  -26.6756  -29.9472  -16.1725 C   0  0  0  0  0  0  0  0  0  0  0  0
  -27.2663  -30.2756  -19.0978 C   0  0  0  0  0  0  0  0  0  0  0  0
  -22.4136  -32.7449  -23.0686 N   0  0  0  0  0  0  0  0  0  0  0  0
  -21.0180  -32.9577  -23.3563 C   0  0  0  0  0  0  0  0  0  0  0  0
  -20.9285  -33.1659  -24.8444 C   0  0  0  0  0  0  0  0  0  0  0  0
  -22.2941  -33.6791  -25.2350 C   0  0  0  0  0  0  0  0  0  0  0  0
  -23.2027  -33.1831  -24.1387 C   0  0  0  0  0  0  0  0  0  0  0  0
  -24.4206  -33.2419  -24.2148 O   0  0  0  0  0  0  0  0  0  0  0  0
  1  2  1  0
  3  2  1  1
  3  4  1  0
  4  5  1  0
  5  6  1  0
  6  7  1  0
  7  8  1  6
  7  9  1  0
  9 10  1  0
 10 11  2  0
 11 12  1  0
 12 13  1  0
 13 14  1  0
 14 15  1  0
 15 16  1  0
 16 17  1  0
 12 18  1  0
  3 19  1  0
 19 20  1  0
 20 21  1  0
 21 22  1  0
 22 23  1  0
 23 24  2  0
 18  9  2  0
 23 19  1  0
 17 13  1  0
M  END
>  <HIPPO Pose ID>  (241) 
107022

>  <fragmenstein_outcome>  (241) 
acceptable

>  <energy_score>  (241) 
-32.590053

>  <distance_score>  (241) 
0.856717

>  <fragmenstein_mode>  (241) 
expansion

>  <HIPPO Compound ID>  (241) 
41553

>  <name>  (241) 
FWFPVVWCLYGCFY-RDJZCZTQSA-N

>  <ref_pdb>  (241) 
z0936a

>  <ref_mols>  (241) 
z0936a,z1018a

>  <csv_name>  (241) 
RdRp_knitwork_green_site_rna_tunnel_pure_split4000_batch016.csv

>  <fragmenstein_runtime>  (241) 
24.107233

>  <tags>  (241) 
['Fragmenstein placed']

>  <original ID>  (241) 
FWFPVVWCLYGCFY-RDJZCZTQSA-N

>  <fragmenstein_error>  (241) 
None

>  <original SMILES>  (241) 
CC[C@@H](CCN[C@@H](C)c1cnn(C2CCCC2)c1)N1CCCC1=O

>  <inchikey>  (241) 
FWFPVVWCLYGCFY-RDJZCZTQSA-N

>  <SLURM_JOB_NAME>  (241) 
BulkDock.place:Flavi_NS5_RdRp:RdRp_knitwork_green_site_rna_tunnel_pure_split4000_batch016

>  <scratch_subdir>  (241) 
/opt/xchem-fragalysis-2/maxwin/BulkDock/SCRATCH/217087/C41553-P196

>  <alias>  (241) 
None

>  <SLURM_JOB_ID>  (241) 
217087

>  <exports>  (241) 
['/opt/xchem-fragalysis-2/maxwin/BulkDock/OUTPUTS/RdRp_knitwork_green_site_rna_tunnel_pure_split4000_batch016_217087.sdf']

$$$$
107037
     RDKit          3D

 13 14  0  0  0  0  0  0  0  0999 V2000
  -30.8994  -30.6145  -20.5319 C   0  0  0  0  0  0  0  0  0  0  0  0
  -29.4052  -30.3904  -20.7666 C   0  0  0  0  0  0  0  0  0  0  0  0
  -28.9578  -29.0959  -20.1066 C   0  0  1  0  0  0  0  0  0  0  0  0
  -29.1218  -29.2617  -18.6645 N   0  0  0  0  0  0  0  0  0  0  0  0
  -27.9374  -29.5738  -18.0358 C   0  0  0  0  0  0  0  0  0  0  0  0
  -27.8042  -29.8766  -16.8649 O   0  0  0  0  0  0  0  0  0  0  0  0
  -26.8509  -29.4940  -19.0672 C   0  0  0  0  0  0  0  0  0  0  0  0
  -27.5040  -28.6296  -20.1332 C   0  0  1  0  0  0  0  0  0  0  0  0
  -26.7336  -28.4665  -21.3964 C   0  0  0  0  0  0  0  0  0  0  0  0
  -25.9644  -27.3660  -21.7476 C   0  0  0  0  0  0  0  0  0  0  0  0
  -25.3329  -27.4285  -22.9684 N   0  0  0  0  0  0  0  0  0  0  0  0
  -25.5722  -28.5956  -23.5221 C   0  0  0  0  0  0  0  0  0  0  0  0
  -26.6030  -29.6400  -22.6295 S   0  0  0  0  0  0  0  0  0  0  0  0
  1  2  1  0
  3  2  1  6
  3  4  1  0
  4  5  1  0
  5  6  2  0
  5  7  1  0
  7  8  1  0
  8  9  1  6
  9 10  2  0
 10 11  1  0
 11 12  2  0
 12 13  1  0
  8  3  1  0
 13  9  1  0
M  END
>  <HIPPO Pose ID>  (242) 
107037

>  <fragmenstein_outcome>  (242) 
acceptable

>  <energy_score>  (242) 
-52.172962

>  <distance_score>  (242) 
0.835353

>  <fragmenstein_mode>  (242) 
expansion

>  <HIPPO Compound ID>  (242) 
42416

>  <name>  (242) 
QMFDFWVJFUDZHW-RNFRBKRXSA-N

>  <ref_pdb>  (242) 
z0496a

>  <ref_mols>  (242) 
z0496a,z1018a

>  <csv_name>  (242) 
RdRp_knitwork_green_site_rna_tunnel_pure_split4000_batch012.csv

>  <fragmenstein_runtime>  (242) 
2.188271

>  <tags>  (242) 
['Fragmenstein placed']

>  <original ID>  (242) 
QMFDFWVJFUDZHW-RNFRBKRXSA-N

>  <fragmenstein_error>  (242) 
None

>  <original SMILES>  (242) 
CC[C@H]1NC(=O)C[C@H]1c1cncs1

>  <inchikey>  (242) 
QMFDFWVJFUDZHW-RNFRBKRXSA-N

>  <SLURM_JOB_NAME>  (242) 
BulkDock.place:Flavi_NS5_RdRp:RdRp_knitwork_green_site_rna_tunnel_pure_split4000_batch012

>  <scratch_subdir>  (242) 
/opt/xchem-fragalysis-2/maxwin/BulkDock/SCRATCH/217083/C42416-P136

>  <alias>  (242) 
None

>  <SLURM_JOB_ID>  (242) 
217083

>  <exports>  (242) 
['/opt/xchem-fragalysis-2/maxwin/BulkDock/OUTPUTS/RdRp_knitwork_green_site_rna_tunnel_pure_split4000_batch012_217083.sdf']

$$$$
107167
     RDKit          3D

 22 24  0  0  0  0  0  0  0  0999 V2000
  -24.6241  -33.4840  -24.3603 O   0  0  0  0  0  0  0  0  0  0  0  0
  -23.4211  -33.4152  -24.1875 C   0  0  0  0  0  0  0  0  0  0  0  0
  -22.3841  -34.1544  -24.9893 C   0  0  0  0  0  0  0  0  0  0  0  0
  -21.1509  -33.2901  -24.7788 C   0  0  0  0  0  0  0  0  0  0  0  0
  -21.3241  -32.7208  -23.3849 C   0  0  0  0  0  0  0  0  0  0  0  0
  -22.7531  -32.6800  -23.2217 N   0  0  0  0  0  0  0  0  0  0  0  0
  -23.4103  -31.7108  -22.3660 C   0  0  0  0  0  0  0  0  0  0  0  0
  -24.3500  -32.3408  -21.3435 C   0  0  0  0  0  0  0  0  0  0  0  0
  -25.1971  -31.3160  -20.6629 N   0  0  0  0  0  0  0  0  0  0  0  0
  -26.5938  -30.8636  -21.5018 S   0  0  0  0  0  0  0  0  0  0  0  0
  -26.3562  -29.6759  -22.2770 O   0  0  0  0  0  0  0  0  0  0  0  0
  -27.1131  -32.0520  -22.1251 O   0  0  0  0  0  0  0  0  0  0  0  0
  -27.8942  -30.4151  -20.3432 C   0  0  0  0  0  0  0  0  0  0  0  0
  -29.2002  -30.0879  -20.6828 C   0  0  0  0  0  0  0  0  0  0  0  0
  -29.9472  -30.2714  -19.5215 C   0  0  0  0  0  0  0  0  0  0  0  0
  -29.1986  -30.6434  -18.4900 N   0  0  0  0  0  0  0  0  0  0  0  0
  -27.9178  -30.5561  -18.9401 N   0  0  0  0  0  0  0  0  0  0  0  0
  -26.8950  -30.1651  -17.9682 C   0  0  0  0  0  0  0  0  0  0  0  0
  -27.3699  -28.8664  -17.3073 C   0  0  0  0  0  0  0  0  0  0  0  0
  -28.1645  -29.3023  -16.0750 C   0  0  0  0  0  0  0  0  0  0  0  0
  -27.3740  -30.4763  -15.5339 C   0  0  0  0  0  0  0  0  0  0  0  0
  -26.4037  -30.8479  -16.6625 C   0  0  0  0  0  0  0  0  0  0  0  0
  1  2  2  0
  2  3  1  0
  3  4  1  0
  4  5  1  0
  5  6  1  0
  6  7  1  0
  7  8  1  0
  8  9  1  0
  9 10  1  0
 10 11  2  0
 10 12  2  0
 10 13  1  0
 13 14  2  0
 14 15  1  0
 15 16  2  0
 16 17  1  0
 17 18  1  0
 18 19  1  0
 19 20  1  0
 20 21  1  0
 21 22  1  0
  6  2  1  0
 17 13  1  0
 22 18  1  0
M  END
>  <HIPPO Pose ID>  (243) 
107167

>  <fragmenstein_outcome>  (243) 
acceptable

>  <energy_score>  (243) 
-7.303213

>  <distance_score>  (243) 
0.951009

>  <fragmenstein_mode>  (243) 
expansion

>  <HIPPO Compound ID>  (243) 
41689

>  <name>  (243) 
JQFOUHQLNJADNF-UHFFFAOYSA-N

>  <ref_pdb>  (243) 
z0936a

>  <ref_mols>  (243) 
z0936a,z1018a

>  <csv_name>  (243) 
RdRp_knitwork_green_site_rna_tunnel_pure_split4000_batch016.csv

>  <fragmenstein_runtime>  (243) 
10.65897

>  <tags>  (243) 
['Fragmenstein placed']

>  <original ID>  (243) 
JQFOUHQLNJADNF-UHFFFAOYSA-N

>  <fragmenstein_error>  (243) 
None

>  <original SMILES>  (243) 
O=C1CCCN1CCNS(=O)(=O)c1ccnn1C1CCCC1

>  <inchikey>  (243) 
JQFOUHQLNJADNF-UHFFFAOYSA-N

>  <SLURM_JOB_NAME>  (243) 
BulkDock.place:Flavi_NS5_RdRp:RdRp_knitwork_green_site_rna_tunnel_pure_split4000_batch016

>  <scratch_subdir>  (243) 
/opt/xchem-fragalysis-2/maxwin/BulkDock/SCRATCH/217087/C41689-P196

>  <alias>  (243) 
None

>  <SLURM_JOB_ID>  (243) 
217087

>  <exports>  (243) 
['/opt/xchem-fragalysis-2/maxwin/BulkDock/OUTPUTS/RdRp_knitwork_green_site_rna_tunnel_pure_split4000_batch016_217087.sdf']

$$$$
107461
     RDKit          3D

 21 23  0  0  0  0  0  0  0  0999 V2000
  -24.2383  -32.1060  -13.4668 C   0  0  0  0  0  0  0  0  0  0  0  0
  -23.0568  -31.4453  -14.1553 C   0  0  2  0  0  0  0  0  0  0  0  0
  -23.3407  -30.5127  -15.2786 N   0  0  0  0  0  0  0  0  0  0  0  0
  -24.4391  -30.8630  -16.2256 C   0  0  0  0  0  0  0  0  0  0  0  0
  -24.1262  -30.7331  -17.7813 C   0  0  0  0  0  0  0  0  0  0  0  0
  -25.1915  -31.3716  -18.6884 C   0  0  2  0  0  0  0  0  0  0  0  0
  -25.0392  -31.1766  -20.1240 N   0  0  0  0  0  0  0  0  0  0  0  0
  -26.2388  -30.8162  -20.7120 C   0  0  0  0  0  0  0  0  0  0  0  0
  -26.5221  -30.8457  -21.8959 O   0  0  0  0  0  0  0  0  0  0  0  0
  -27.0899  -30.4459  -19.7362 N   0  0  0  0  0  0  0  0  0  0  0  0
  -26.5779  -30.7609  -18.5237 C   0  0  0  0  0  0  0  0  0  0  0  0
  -27.1916  -30.6133  -17.4822 O   0  0  0  0  0  0  0  0  0  0  0  0
  -21.9991  -32.4210  -14.5968 C   0  0  0  0  0  0  0  0  0  0  0  0
  -20.7881  -32.6668  -13.9716 C   0  0  0  0  0  0  0  0  0  0  0  0
  -19.8936  -33.1844  -14.8517 O   0  0  0  0  0  0  0  0  0  0  0  0
  -20.5961  -33.4868  -15.9728 C   0  0  0  0  0  0  0  0  0  0  0  0
  -20.0619  -34.0264  -17.1365 C   0  0  0  0  0  0  0  0  0  0  0  0
  -20.9684  -34.3278  -18.1505 C   0  0  0  0  0  0  0  0  0  0  0  0
  -22.3339  -34.1485  -17.9610 C   0  0  0  0  0  0  0  0  0  0  0  0
  -22.8410  -33.6231  -16.7719 C   0  0  0  0  0  0  0  0  0  0  0  0
  -21.9411  -33.2016  -15.7858 C   0  0  0  0  0  0  0  0  0  0  0  0
  2  1  1  6
  2  3  1  0
  3  4  1  0
  4  5  1  0
  6  5  1  1
  6  7  1  0
  7  8  1  0
  8  9  2  0
  8 10  1  0
 10 11  1  0
 11 12  2  0
  2 13  1  0
 13 14  2  0
 14 15  1  0
 15 16  1  0
 16 17  2  0
 17 18  1  0
 18 19  2  0
 19 20  1  0
 20 21  2  0
 11  6  1  0
 21 13  1  0
 21 16  1  0
M  END
>  <HIPPO Pose ID>  (244) 
107461

>  <fragmenstein_outcome>  (244) 
acceptable

>  <energy_score>  (244) 
-57.995729

>  <distance_score>  (244) 
1.946045

>  <fragmenstein_mode>  (244) 
expansion

>  <HIPPO Compound ID>  (244) 
28622

>  <name>  (244) 
WTMIHZIJMZOANU-CABZTGNLSA-N

>  <ref_pdb>  (244) 
z0521a

>  <ref_mols>  (244) 
z0521a,3vws-b,3vws-a

>  <csv_name>  (244) 
RdRp_knitwork_green_site_rna_tunnel_pure_split4000_batch000.csv

>  <fragmenstein_runtime>  (244) 
3.63705

>  <tags>  (244) 
['Fragmenstein placed']

>  <original ID>  (244) 
WTMIHZIJMZOANU-CABZTGNLSA-N

>  <fragmenstein_error>  (244) 
None

>  <original SMILES>  (244) 
C[C@H](NCC[C@@H]1NC(=O)NC1=O)c1coc2ccccc12

>  <inchikey>  (244) 
WTMIHZIJMZOANU-CABZTGNLSA-N

>  <SLURM_JOB_NAME>  (244) 
BulkDock.place:Flavi_NS5_RdRp:RdRp_knitwork_green_site_rna_tunnel_pure_split4000_batch000

>  <scratch_subdir>  (244) 
/opt/xchem-fragalysis-2/maxwin/BulkDock/SCRATCH/217071/C28622-P141

>  <alias>  (244) 
None

>  <SLURM_JOB_ID>  (244) 
217071

>  <exports>  (244) 
['/opt/xchem-fragalysis-2/maxwin/BulkDock/OUTPUTS/RdRp_knitwork_green_site_rna_tunnel_pure_split4000_batch000_217071.sdf']

$$$$
107490
     RDKit          3D

 20 22  0  0  0  0  0  0  0  0999 V2000
  -30.5685  -30.1749  -17.5980 O   0  0  0  0  0  0  0  0  0  0  0  0
  -29.3533  -30.2160  -17.5671 C   0  0  0  0  0  0  0  0  0  0  0  0
  -28.5568  -30.8383  -16.6645 O   0  0  0  0  0  0  0  0  0  0  0  0
  -29.2315  -31.8618  -15.9213 C   0  0  0  0  0  0  0  0  0  0  0  0
  -29.3281  -33.0904  -16.7911 C   0  0  0  0  0  0  0  0  0  0  0  0
  -28.1838  -33.8157  -17.1207 C   0  0  0  0  0  0  0  0  0  0  0  0
  -28.2958  -34.8734  -18.0173 C   0  0  0  0  0  0  0  0  0  0  0  0
  -29.5400  -35.1764  -18.5554 C   0  0  0  0  0  0  0  0  0  0  0  0
  -30.6298  -34.4150  -18.1675 C   0  0  0  0  0  0  0  0  0  0  0  0
  -30.5421  -33.3737  -17.3131 N   0  0  0  0  0  0  0  0  0  0  0  0
  -28.4920  -29.6379  -18.6061 C   0  0  0  0  0  0  0  0  0  0  0  0
  -28.7158  -29.9710  -19.9419 C   0  0  0  0  0  0  0  0  0  0  0  0
  -27.8972  -29.4200  -20.9278 C   0  0  0  0  0  0  0  0  0  0  0  0
  -26.8979  -28.4950  -20.5950 C   0  0  0  0  0  0  0  0  0  0  0  0
  -26.7017  -28.1500  -19.2459 C   0  0  0  0  0  0  0  0  0  0  0  0
  -27.4840  -28.7444  -18.2527 C   0  0  0  0  0  0  0  0  0  0  0  0
  -25.6916  -27.0954  -18.8742 C   0  0  0  0  0  0  0  0  0  0  0  0
  -24.5479  -27.0597  -19.8736 C   0  0  0  0  0  0  0  0  0  0  0  0
  -25.0990  -26.9763  -21.2861 C   0  0  0  0  0  0  0  0  0  0  0  0
  -26.0121  -28.0657  -21.5736 N   0  0  0  0  0  0  0  0  0  0  0  0
  1  2  2  0
  2  3  1  0
  3  4  1  0
  4  5  1  0
  5  6  2  0
  6  7  1  0
  7  8  2  0
  8  9  1  0
  9 10  2  0
  2 11  1  0
 11 12  2  0
 12 13  1  0
 13 14  2  0
 14 15  1  0
 15 16  2  0
 15 17  1  0
 17 18  1  0
 18 19  1  0
 19 20  1  0
 10  5  1  0
 16 11  1  0
 20 14  1  0
M  END
>  <HIPPO Pose ID>  (245) 
107490

>  <fragmenstein_outcome>  (245) 
acceptable

>  <energy_score>  (245) 
-29.303434

>  <distance_score>  (245) 
0.802875

>  <fragmenstein_mode>  (245) 
expansion

>  <HIPPO Compound ID>  (245) 
30786

>  <name>  (245) 
DPCNGRFQSXDRRV-UHFFFAOYSA-N

>  <ref_pdb>  (245) 
z0364a

>  <ref_mols>  (245) 
z0364a,z0637a

>  <csv_name>  (245) 
RdRp_knitwork_green_site_rna_tunnel_pure_split4000_batch011.csv

>  <fragmenstein_runtime>  (245) 
4.668796

>  <tags>  (245) 
['Fragmenstein placed']

>  <original ID>  (245) 
DPCNGRFQSXDRRV-UHFFFAOYSA-N

>  <fragmenstein_error>  (245) 
None

>  <original SMILES>  (245) 
O=C(OCc1ccccn1)c1ccc2c(c1)CCCN2

>  <inchikey>  (245) 
DPCNGRFQSXDRRV-UHFFFAOYSA-N

>  <SLURM_JOB_NAME>  (245) 
BulkDock.place:Flavi_NS5_RdRp:RdRp_knitwork_green_site_rna_tunnel_pure_split4000_batch011

>  <scratch_subdir>  (245) 
/opt/xchem-fragalysis-2/maxwin/BulkDock/SCRATCH/217082/C30786-P118

>  <alias>  (245) 
None

>  <SLURM_JOB_ID>  (245) 
217082

>  <exports>  (245) 
['/opt/xchem-fragalysis-2/maxwin/BulkDock/OUTPUTS/RdRp_knitwork_green_site_rna_tunnel_pure_split4000_batch011_217082.sdf']

$$$$
107571
     RDKit          3D

 20 22  0  0  0  0  0  0  0  0999 V2000
  -25.7937  -28.4800  -24.7894 O   0  0  0  0  0  0  0  0  0  0  0  0
  -25.7185  -29.5242  -24.1694 C   0  0  0  0  0  0  0  0  0  0  0  0
  -26.5805  -30.5524  -24.3016 N   0  0  0  0  0  0  0  0  0  0  0  0
  -26.1992  -31.6077  -23.5362 C   0  0  0  0  0  0  0  0  0  0  0  0
  -26.7389  -32.7025  -23.5173 O   0  0  0  0  0  0  0  0  0  0  0  0
  -25.0006  -31.1804  -22.6922 C   0  0  2  0  0  0  0  0  0  0  0  0
  -25.3271  -31.1938  -21.1994 C   0  0  0  0  0  0  0  0  0  0  0  0
  -26.2534  -30.0638  -20.7586 C   0  0  0  0  0  0  0  0  0  0  0  0
  -26.6615  -30.2811  -19.4016 O   0  0  0  0  0  0  0  0  0  0  0  0
  -27.3497  -29.2328  -18.8598 C   0  0  0  0  0  0  0  0  0  0  0  0
  -27.4701  -28.1271  -19.3734 O   0  0  0  0  0  0  0  0  0  0  0  0
  -27.9879  -29.6584  -17.6545 C   0  0  0  0  0  0  0  0  0  0  0  0
  -27.1694  -29.6879  -16.1746 S   0  0  0  0  0  0  0  0  0  0  0  0
  -28.5603  -30.2834  -15.3933 C   0  0  0  0  0  0  0  0  0  0  0  0
  -29.6178  -30.4170  -16.1557 N   0  0  0  0  0  0  0  0  0  0  0  0
  -29.2775  -30.0815  -17.4538 C   0  0  0  0  0  0  0  0  0  0  0  0
  -30.3457  -30.2274  -18.5478 C   0  0  0  0  0  0  0  0  0  0  0  0
  -30.1518  -30.1738  -20.0313 C   0  0  0  0  0  0  0  0  0  0  0  0
  -30.2957  -31.4929  -19.3492 C   0  0  0  0  0  0  0  0  0  0  0  0
  -24.7803  -29.8574  -23.2226 N   0  0  0  0  0  0  0  0  0  0  0  0
  1  2  2  0
  2  3  1  0
  3  4  1  0
  4  5  2  0
  4  6  1  0
  6  7  1  1
  7  8  1  0
  8  9  1  0
  9 10  1  0
 10 11  2  0
 10 12  1  0
 12 13  1  0
 13 14  1  0
 14 15  2  0
 15 16  1  0
 16 17  1  0
 17 18  1  0
 18 19  1  0
  6 20  1  0
 20  2  1  0
 16 12  2  0
 19 17  1  0
M  END
>  <HIPPO Pose ID>  (246) 
107571

>  <fragmenstein_outcome>  (246) 
acceptable

>  <energy_score>  (246) 
-57.85402

>  <distance_score>  (246) 
0.999724

>  <fragmenstein_mode>  (246) 
expansion

>  <HIPPO Compound ID>  (246) 
59075

>  <name>  (246) 
SESQMSFMAMOERY-ZETCQYMHSA-N

>  <ref_pdb>  (246) 
z0519a

>  <ref_mols>  (246) 
z0496a,z0519a

>  <csv_name>  (246) 
RdRp_knitwork_green_site_rna_tunnel_pure_split4000_batch001.csv

>  <fragmenstein_runtime>  (246) 
7.641511

>  <tags>  (246) 
['Fragmenstein placed']

>  <original ID>  (246) 
SESQMSFMAMOERY-ZETCQYMHSA-N

>  <fragmenstein_error>  (246) 
None

>  <original SMILES>  (246) 
O=C1NC(=O)[C@H](CCOC(=O)c2scnc2C2CC2)N1

>  <inchikey>  (246) 
SESQMSFMAMOERY-ZETCQYMHSA-N

>  <SLURM_JOB_NAME>  (246) 
BulkDock.place:Flavi_NS5_RdRp:RdRp_knitwork_green_site_rna_tunnel_pure_split4000_batch001

>  <scratch_subdir>  (246) 
/opt/xchem-fragalysis-2/maxwin/BulkDock/SCRATCH/217072/C59075-P140

>  <alias>  (246) 
None

>  <SLURM_JOB_ID>  (246) 
217072

>  <exports>  (246) 
['/opt/xchem-fragalysis-2/maxwin/BulkDock/OUTPUTS/RdRp_knitwork_green_site_rna_tunnel_pure_split4000_batch001_217072.sdf']

$$$$
107626
     RDKit          3D

 21 23  0  0  0  0  0  0  0  0999 V2000
  -24.9391  -33.6342  -24.2060 O   0  0  0  0  0  0  0  0  0  0  0  0
  -23.7506  -33.3727  -24.1404 C   0  0  0  0  0  0  0  0  0  0  0  0
  -22.6722  -34.0623  -24.9424 C   0  0  0  0  0  0  0  0  0  0  0  0
  -21.4576  -33.1741  -24.7266 C   0  0  0  0  0  0  0  0  0  0  0  0
  -21.7034  -32.5619  -23.3653 C   0  0  0  0  0  0  0  0  0  0  0  0
  -23.1433  -32.4539  -23.3038 N   0  0  0  0  0  0  0  0  0  0  0  0
  -23.7846  -31.7568  -22.2027 C   0  0  2  0  0  0  0  0  0  0  0  0
  -24.0984  -32.6167  -20.9934 C   0  0  0  0  0  0  0  0  0  0  0  0
  -24.8991  -31.6430  -20.1293 C   0  0  0  0  0  0  0  0  0  0  0  0
  -25.6114  -30.7718  -21.0672 N   0  0  0  0  0  0  0  0  0  0  0  0
  -26.9200  -30.3659  -20.8565 C   0  0  0  0  0  0  0  0  0  0  0  0
  -27.6537  -30.1053  -21.9629 N   0  0  0  0  0  0  0  0  0  0  0  0
  -28.9595  -29.8133  -21.8236 C   0  0  0  0  0  0  0  0  0  0  0  0
  -29.6239  -29.7708  -20.6251 C   0  0  0  0  0  0  0  0  0  0  0  0
  -28.8716  -29.9225  -19.4790 C   0  0  0  0  0  0  0  0  0  0  0  0
  -27.4991  -30.1834  -19.5742 C   0  0  0  0  0  0  0  0  0  0  0  0
  -26.6921  -30.3056  -18.4726 O   0  0  0  0  0  0  0  0  0  0  0  0
  -27.1897  -29.8948  -17.2116 C   0  0  0  0  0  0  0  0  0  0  0  0
  -28.2474  -30.6554  -16.8375 F   0  0  0  0  0  0  0  0  0  0  0  0
  -27.6194  -28.6155  -17.2884 F   0  0  0  0  0  0  0  0  0  0  0  0
  -25.1530  -31.0665  -22.4420 C   0  0  0  0  0  0  0  0  0  0  0  0
  1  2  2  0
  2  3  1  0
  3  4  1  0
  4  5  1  0
  5  6  1  0
  7  6  1  6
  7  8  1  0
  8  9  1  0
  9 10  1  0
 10 11  1  0
 11 12  2  0
 12 13  1  0
 13 14  2  0
 14 15  1  0
 15 16  2  0
 16 17  1  0
 17 18  1  0
 18 19  1  0
 18 20  1  0
 10 21  1  0
  6  2  1  0
 21  7  1  0
 16 11  1  0
M  END
>  <HIPPO Pose ID>  (247) 
107626

>  <fragmenstein_outcome>  (247) 
acceptable

>  <energy_score>  (247) 
-49.809331

>  <distance_score>  (247) 
0.762699

>  <fragmenstein_mode>  (247) 
expansion

>  <HIPPO Compound ID>  (247) 
4621

>  <name>  (247) 
AETFKVLHIYMKLR-SNVBAGLBSA-N

>  <ref_pdb>  (247) 
z0215a

>  <ref_mols>  (247) 
z0215a,z1018a

>  <csv_name>  (247) 
RdRp_knitwork_green_site_rna_tunnel_pure_split4000_batch010.csv

>  <fragmenstein_runtime>  (247) 
8.209552

>  <tags>  (247) 
['Fragmenstein placed']

>  <original ID>  (247) 
AETFKVLHIYMKLR-SNVBAGLBSA-N

>  <fragmenstein_error>  (247) 
None

>  <original SMILES>  (247) 
O=C1CCCN1[C@@H]1CCN(c2ncccc2OC(F)F)C1

>  <inchikey>  (247) 
AETFKVLHIYMKLR-SNVBAGLBSA-N

>  <SLURM_JOB_NAME>  (247) 
BulkDock.place:Flavi_NS5_RdRp:RdRp_knitwork_green_site_rna_tunnel_pure_split4000_batch010

>  <scratch_subdir>  (247) 
/opt/xchem-fragalysis-2/maxwin/BulkDock/SCRATCH/217081/C4621-P104

>  <alias>  (247) 
None

>  <SLURM_JOB_ID>  (247) 
217081

>  <exports>  (247) 
['/opt/xchem-fragalysis-2/maxwin/BulkDock/OUTPUTS/RdRp_knitwork_green_site_rna_tunnel_pure_split4000_batch010_217081.sdf']

$$$$
107632
     RDKit          3D

 12 13  0  0  0  0  0  0  0  0999 V2000
  -24.9280  -33.0336  -19.0050 C   0  0  0  0  0  0  0  0  0  0  0  0
  -23.9389  -32.2382  -19.5354 C   0  0  0  0  0  0  0  0  0  0  0  0
  -24.4851  -31.5067  -20.5592 N   0  0  0  0  0  0  0  0  0  0  0  0
  -25.8419  -31.7217  -20.6099 C   0  0  0  0  0  0  0  0  0  0  0  0
  -26.5961  -31.0097  -21.4838 N   0  0  0  0  0  0  0  0  0  0  0  0
  -27.6565  -30.4293  -21.1417 N   0  0  0  0  0  0  0  0  0  0  0  0
  -27.9992  -30.2114  -19.8380 C   0  0  0  0  0  0  0  0  0  0  0  0
  -27.2414  -29.7717  -18.8472 N   0  0  0  0  0  0  0  0  0  0  0  0
  -27.9600  -29.7023  -17.6717 C   0  0  0  0  0  0  0  0  0  0  0  0
  -29.2866  -30.0495  -17.7681 C   0  0  0  0  0  0  0  0  0  0  0  0
  -29.6494  -30.4889  -19.3820 S   0  0  0  0  0  0  0  0  0  0  0  0
  -26.1203  -32.7323  -19.7038 C   0  0  0  0  0  0  0  0  0  0  0  0
  1  2  2  0
  2  3  1  0
  3  4  1  0
  4  5  1  0
  5  6  2  3
  6  7  1  0
  7  8  2  0
  8  9  1  0
  9 10  2  0
 10 11  1  0
  4 12  2  0
 12  1  1  0
 11  7  1  0
M  END
>  <HIPPO Pose ID>  (248) 
107632

>  <fragmenstein_outcome>  (248) 
acceptable

>  <energy_score>  (248) 
-71.936075

>  <distance_score>  (248) 
0.839035

>  <fragmenstein_mode>  (248) 
expansion

>  <HIPPO Compound ID>  (248) 
25622

>  <name>  (248) 
FLCRRDDPPNONFG-UHFFFAOYSA-N

>  <ref_pdb>  (248) 
z0384a

>  <ref_mols>  (248) 
d0472b,z0384a

>  <csv_name>  (248) 
RdRp_knitwork_green_site_rna_tunnel_pure_split4000_batch004.csv

>  <fragmenstein_runtime>  (248) 
1.901847

>  <tags>  (248) 
['Fragmenstein placed']

>  <original ID>  (248) 
FLCRRDDPPNONFG-UHFFFAOYSA-N

>  <fragmenstein_error>  (248) 
None

>  <original SMILES>  (248) 
c1c[nH]c(N=Nc2nccs2)c1

>  <inchikey>  (248) 
FLCRRDDPPNONFG-UHFFFAOYSA-N

>  <SLURM_JOB_NAME>  (248) 
BulkDock.place:Flavi_NS5_RdRp:RdRp_knitwork_green_site_rna_tunnel_pure_split4000_batch004

>  <scratch_subdir>  (248) 
/opt/xchem-fragalysis-2/maxwin/BulkDock/SCRATCH/217075/C25622-P120

>  <alias>  (248) 
None

>  <SLURM_JOB_ID>  (248) 
217075

>  <exports>  (248) 
['/opt/xchem-fragalysis-2/maxwin/BulkDock/OUTPUTS/RdRp_knitwork_green_site_rna_tunnel_pure_split4000_batch004_217075.sdf']

$$$$
107670
     RDKit          3D

 22 24  0  0  0  0  0  0  0  0999 V2000
  -23.3220  -31.4110  -12.6090 C   0  0  0  0  0  0  0  0  0  0  0  0
  -23.3322  -31.7062  -14.1074 C   0  0  1  0  0  0  0  0  0  0  0  0
  -23.5402  -30.4366  -14.8898 N   0  0  0  0  0  0  0  0  0  0  0  0
  -23.8603  -30.7110  -16.3368 C   0  0  0  0  0  0  0  0  0  0  0  0
  -24.6304  -29.6653  -17.2384 C   0  0  0  0  0  0  0  0  0  0  0  0
  -24.9111  -30.0612  -18.6944 N   0  0  0  0  0  0  0  0  0  0  0  0
  -24.8328  -31.4000  -18.9002 C   0  0  0  0  0  0  0  0  0  0  0  0
  -23.9214  -32.0238  -19.4160 O   0  0  0  0  0  0  0  0  0  0  0  0
  -26.1855  -31.9473  -18.4721 C   0  0  0  0  0  0  0  0  0  0  0  0
  -26.9818  -30.7476  -18.3400 N   0  0  0  0  0  0  0  0  0  0  0  0
  -28.4196  -30.6744  -18.4916 C   0  0  0  0  0  0  0  0  0  0  0  0
  -26.2142  -29.9479  -19.1498 C   0  0  0  0  0  0  0  0  0  0  0  0
  -26.6515  -29.6262  -20.2524 O   0  0  0  0  0  0  0  0  0  0  0  0
  -22.1057  -32.4467  -14.5623 C   0  0  0  0  0  0  0  0  0  0  0  0
  -20.8838  -32.6018  -13.9313 C   0  0  0  0  0  0  0  0  0  0  0  0
  -19.9382  -33.0355  -14.8044 O   0  0  0  0  0  0  0  0  0  0  0  0
  -20.6022  -33.3940  -15.9328 C   0  0  0  0  0  0  0  0  0  0  0  0
  -20.0208  -33.9025  -17.0867 C   0  0  0  0  0  0  0  0  0  0  0  0
  -20.8981  -34.2803  -18.1010 C   0  0  0  0  0  0  0  0  0  0  0  0
  -22.2753  -34.1968  -17.9236 C   0  0  0  0  0  0  0  0  0  0  0  0
  -22.8313  -33.6901  -16.7489 C   0  0  0  0  0  0  0  0  0  0  0  0
  -21.9653  -33.2086  -15.7586 C   0  0  0  0  0  0  0  0  0  0  0  0
  2  1  1  1
  2  3  1  0
  3  4  1  0
  4  5  1  0
  5  6  1  0
  6  7  1  0
  7  8  2  0
  7  9  1  0
  9 10  1  0
 10 11  1  0
 10 12  1  0
 12 13  2  0
  2 14  1  0
 14 15  2  0
 15 16  1  0
 16 17  1  0
 17 18  2  0
 18 19  1  0
 19 20  2  0
 20 21  1  0
 21 22  2  0
 12  6  1  0
 22 14  1  0
 22 17  1  0
M  END
>  <HIPPO Pose ID>  (249) 
107670

>  <fragmenstein_outcome>  (249) 
acceptable

>  <energy_score>  (249) 
23.448523

>  <distance_score>  (249) 
1.918806

>  <fragmenstein_mode>  (249) 
expansion

>  <HIPPO Compound ID>  (249) 
33287

>  <name>  (249) 
QEXNYPBYXRYBOQ-LLVKDONJSA-N

>  <ref_pdb>  (249) 
z0521a

>  <ref_mols>  (249) 
z0521a,3vws-b,3vws-a

>  <csv_name>  (249) 
RdRp_knitwork_green_site_rna_tunnel_pure_split4000_batch000.csv

>  <fragmenstein_runtime>  (249) 
2.568484

>  <tags>  (249) 
['Fragmenstein placed']

>  <original ID>  (249) 
QEXNYPBYXRYBOQ-LLVKDONJSA-N

>  <fragmenstein_error>  (249) 
None

>  <original SMILES>  (249) 
C[C@@H](NCCN1C(=O)CN(C)C1=O)c1coc2ccccc12

>  <inchikey>  (249) 
QEXNYPBYXRYBOQ-LLVKDONJSA-N

>  <SLURM_JOB_NAME>  (249) 
BulkDock.place:Flavi_NS5_RdRp:RdRp_knitwork_green_site_rna_tunnel_pure_split4000_batch000

>  <scratch_subdir>  (249) 
/opt/xchem-fragalysis-2/maxwin/BulkDock/SCRATCH/217071/C33287-P141

>  <alias>  (249) 
None

>  <SLURM_JOB_ID>  (249) 
217071

>  <exports>  (249) 
['/opt/xchem-fragalysis-2/maxwin/BulkDock/OUTPUTS/RdRp_knitwork_green_site_rna_tunnel_pure_split4000_batch000_217071.sdf']

$$$$
107838
     RDKit          3D

 21 22  0  0  0  0  0  0  0  0999 V2000
  -25.8765  -30.9320  -23.4992 C   0  0  0  0  0  0  0  0  0  0  0  0
  -25.3970  -32.0353  -22.5591 C   0  0  1  0  0  0  0  0  0  0  0  0
  -23.9112  -31.9174  -22.1965 C   0  0  0  0  0  0  0  0  0  0  0  0
  -22.9675  -32.4068  -23.1963 N   0  0  0  0  0  0  0  0  0  0  0  0
  -21.5699  -32.4944  -22.8568 C   0  0  0  0  0  0  0  0  0  0  0  0
  -20.8959  -32.6899  -24.1940 C   0  0  0  0  0  0  0  0  0  0  0  0
  -21.9281  -33.4335  -25.0230 C   0  0  0  0  0  0  0  0  0  0  0  0
  -23.2348  -32.9844  -24.4277 C   0  0  0  0  0  0  0  0  0  0  0  0
  -24.3115  -33.1703  -24.9712 O   0  0  0  0  0  0  0  0  0  0  0  0
  -26.2467  -32.1776  -21.2983 C   0  0  0  0  0  0  0  0  0  0  0  0
  -26.4497  -30.9974  -20.5004 N   0  0  0  0  0  0  0  0  0  0  0  0
  -25.9094  -30.8270  -19.2615 C   0  0  0  0  0  0  0  0  0  0  0  0
  -25.0290  -31.4746  -18.7252 O   0  0  0  0  0  0  0  0  0  0  0  0
  -26.5854  -29.7999  -18.6426 N   0  0  0  0  0  0  0  0  0  0  0  0
  -27.8094  -29.4874  -19.3293 C   0  0  2  0  0  0  0  0  0  0  0  0
  -29.0409  -30.2524  -18.8015 C   0  0  0  0  0  0  0  0  0  0  0  0
  -29.4892  -29.9116  -17.3873 C   0  0  0  0  0  0  0  0  0  0  0  0
  -28.4302  -30.1004  -16.4027 C   0  0  0  0  0  0  0  0  0  0  0  0
  -27.5258  -30.1872  -15.6829 N   0  0  0  0  0  0  0  0  0  0  0  0
  -27.4910  -30.1262  -20.6761 C   0  0  0  0  0  0  0  0  0  0  0  0
  -28.1759  -29.9709  -21.6766 O   0  0  0  0  0  0  0  0  0  0  0  0
  2  1  1  1
  2  3  1  0
  3  4  1  0
  4  5  1  0
  5  6  1  0
  6  7  1  0
  7  8  1  0
  8  9  2  0
  2 10  1  0
 10 11  1  0
 11 12  1  0
 12 13  2  0
 12 14  1  0
 14 15  1  0
 15 16  1  1
 16 17  1  0
 17 18  1  0
 18 19  3  0
 15 20  1  0
 20 21  2  0
  8  4  1  0
 20 11  1  0
M  END
>  <HIPPO Pose ID>  (250) 
107838

>  <fragmenstein_outcome>  (250) 
acceptable

>  <energy_score>  (250) 
-29.489944

>  <distance_score>  (250) 
0.934043

>  <fragmenstein_mode>  (250) 
expansion

>  <HIPPO Compound ID>  (250) 
63031

>  <name>  (250) 
UQEBPLYDLZPKPT-WDEREUQCSA-N

>  <ref_pdb>  (250) 
z0519a

>  <ref_mols>  (250) 
z0519a,z1018a

>  <csv_name>  (250) 
RdRp_knitwork_green_site_rna_tunnel_pure_split4000_batch006.csv

>  <fragmenstein_runtime>  (250) 
3.432054

>  <tags>  (250) 
['Fragmenstein placed']

>  <original ID>  (250) 
UQEBPLYDLZPKPT-WDEREUQCSA-N

>  <fragmenstein_error>  (250) 
None

>  <original SMILES>  (250) 
C[C@@H](CN1CCCC1=O)CN1C(=O)N[C@H](CCC#N)C1=O

>  <inchikey>  (250) 
UQEBPLYDLZPKPT-WDEREUQCSA-N

>  <SLURM_JOB_NAME>  (250) 
BulkDock.place:Flavi_NS5_RdRp:RdRp_knitwork_green_site_rna_tunnel_pure_split4000_batch006

>  <scratch_subdir>  (250) 
/opt/xchem-fragalysis-2/maxwin/BulkDock/SCRATCH/217077/C63031-P140

>  <alias>  (250) 
None

>  <SLURM_JOB_ID>  (250) 
217077

>  <exports>  (250) 
['/opt/xchem-fragalysis-2/maxwin/BulkDock/OUTPUTS/RdRp_knitwork_green_site_rna_tunnel_pure_split4000_batch006_217077.sdf']

$$$$
107980
     RDKit          3D

 18 20  0  0  0  0  0  0  0  0999 V2000
  -19.1871  -33.2681  -19.8183 C   0  0  0  0  0  0  0  0  0  0  0  0
  -19.7231  -32.2501  -20.6106 C   0  0  0  0  0  0  0  0  0  0  0  0
  -20.8460  -32.4819  -21.4172 C   0  0  0  0  0  0  0  0  0  0  0  0
  -21.4312  -33.7643  -21.4203 C   0  0  0  0  0  0  0  0  0  0  0  0
  -22.5033  -34.4066  -22.1139 C   0  0  0  0  0  0  0  0  0  0  0  0
  -23.3664  -33.8531  -23.1825 C   0  0  0  0  0  0  0  0  0  0  0  0
  -24.7533  -34.0315  -22.7976 N   0  0  0  0  0  0  0  0  0  0  0  0
  -25.3368  -32.8717  -22.1394 C   0  0  0  0  0  0  0  0  0  0  0  0
  -24.6545  -32.2810  -20.9000 C   0  0  0  0  0  0  0  0  0  0  0  0
  -25.4547  -31.1402  -20.3647 C   0  0  0  0  0  0  0  0  0  0  0  0
  -26.4096  -31.0763  -19.3742 C   0  0  0  0  0  0  0  0  0  0  0  0
  -26.8535  -29.7915  -19.2106 N   0  0  0  0  0  0  0  0  0  0  0  0
  -26.1925  -29.0771  -20.0901 C   0  0  0  0  0  0  0  0  0  0  0  0
  -25.3378  -29.8499  -20.8203 N   0  0  0  0  0  0  0  0  0  0  0  0
  -22.5465  -35.6973  -21.6179 C   0  0  0  0  0  0  0  0  0  0  0  0
  -21.5569  -35.9056  -20.7197 O   0  0  0  0  0  0  0  0  0  0  0  0
  -20.8737  -34.7403  -20.6034 C   0  0  0  0  0  0  0  0  0  0  0  0
  -19.7595  -34.5436  -19.7938 C   0  0  0  0  0  0  0  0  0  0  0  0
  1  2  2  0
  2  3  1  0
  3  4  2  0
  4  5  1  0
  5  6  1  0
  6  7  1  0
  7  8  1  0
  8  9  1  0
  9 10  1  0
 10 11  2  0
 11 12  1  0
 12 13  2  0
 13 14  1  0
  5 15  2  0
 15 16  1  0
 16 17  1  0
 17 18  2  0
 18  1  1  0
 17  4  1  0
 14 10  1  0
M  END
>  <HIPPO Pose ID>  (251) 
107980

>  <fragmenstein_outcome>  (251) 
acceptable

>  <energy_score>  (251) 
-35.19936

>  <distance_score>  (251) 
0.733832

>  <fragmenstein_mode>  (251) 
expansion

>  <HIPPO Compound ID>  (251) 
35390

>  <name>  (251) 
CYVUPCXIXWKAKT-UHFFFAOYSA-N

>  <ref_pdb>  (251) 
3vws-b

>  <ref_mols>  (251) 
d0378a,3vws-b

>  <csv_name>  (251) 
RdRp_knitwork_green_site_rna_tunnel_pure_split4000_batch013.csv

>  <fragmenstein_runtime>  (251) 
3.513135

>  <tags>  (251) 
['Fragmenstein placed']

>  <original ID>  (251) 
CYVUPCXIXWKAKT-UHFFFAOYSA-N

>  <fragmenstein_error>  (251) 
None

>  <original SMILES>  (251) 
c1ccc2c(CNCCc3cnc[nH]3)coc2c1

>  <inchikey>  (251) 
CYVUPCXIXWKAKT-UHFFFAOYSA-N

>  <SLURM_JOB_NAME>  (251) 
BulkDock.place:Flavi_NS5_RdRp:RdRp_knitwork_green_site_rna_tunnel_pure_split4000_batch013

>  <scratch_subdir>  (251) 
/opt/xchem-fragalysis-2/maxwin/BulkDock/SCRATCH/217084/C35390-P217

>  <alias>  (251) 
None

>  <SLURM_JOB_ID>  (251) 
217084

>  <exports>  (251) 
['/opt/xchem-fragalysis-2/maxwin/BulkDock/OUTPUTS/RdRp_knitwork_green_site_rna_tunnel_pure_split4000_batch013_217084.sdf']

$$$$
108441
     RDKit          3D

 14 15  0  0  0  0  0  0  0  0999 V2000
  -26.6156  -33.4995  -18.6453 C   0  0  0  0  0  0  0  0  0  0  0  0
  -26.9634  -33.7020  -20.1149 C   0  0  0  0  0  0  0  0  0  0  0  0
  -27.8945  -32.7462  -20.7362 N   0  0  0  0  0  0  0  0  0  0  0  0
  -27.4553  -31.3224  -20.7790 C   0  0  2  0  0  0  0  0  0  0  0  0
  -26.0437  -31.2501  -21.2811 C   0  0  0  0  0  0  0  0  0  0  0  0
  -24.8292  -31.2294  -20.6178 C   0  0  0  0  0  0  0  0  0  0  0  0
  -23.8135  -31.4532  -21.5698 C   0  0  0  0  0  0  0  0  0  0  0  0
  -24.4136  -31.4990  -22.8052 C   0  0  0  0  0  0  0  0  0  0  0  0
  -25.7587  -31.3281  -22.6290 N   0  0  0  0  0  0  0  0  0  0  0  0
  -27.7783  -30.5917  -19.4772 C   0  0  0  0  0  0  0  0  0  0  0  0
  -26.9324  -30.2048  -18.5409 N   0  0  0  0  0  0  0  0  0  0  0  0
  -27.6163  -29.7242  -17.4455 C   0  0  0  0  0  0  0  0  0  0  0  0
  -28.9870  -29.7144  -17.5549 C   0  0  0  0  0  0  0  0  0  0  0  0
  -29.4481  -30.3200  -19.0871 S   0  0  0  0  0  0  0  0  0  0  0  0
  1  2  1  0
  2  3  1  0
  4  3  1  1
  4  5  1  0
  5  6  2  0
  6  7  1  0
  7  8  2  0
  8  9  1  0
  4 10  1  0
 10 11  2  0
 11 12  1  0
 12 13  2  0
 13 14  1  0
  9  5  1  0
 14 10  1  0
M  END
>  <HIPPO Pose ID>  (252) 
108441

>  <fragmenstein_outcome>  (252) 
acceptable

>  <energy_score>  (252) 
-93.009978

>  <distance_score>  (252) 
0.983134

>  <fragmenstein_mode>  (252) 
expansion

>  <HIPPO Compound ID>  (252) 
25862

>  <name>  (252) 
ABSULXPPDQRMJA-SECBINFHSA-N

>  <ref_pdb>  (252) 
z0384a

>  <ref_mols>  (252) 
d0472b,z0384a

>  <csv_name>  (252) 
RdRp_knitwork_green_site_rna_tunnel_pure_split4000_batch004.csv

>  <fragmenstein_runtime>  (252) 
1.725029

>  <tags>  (252) 
['Fragmenstein placed']

>  <original ID>  (252) 
ABSULXPPDQRMJA-SECBINFHSA-N

>  <fragmenstein_error>  (252) 
None

>  <original SMILES>  (252) 
CCN[C@H](c1ccc[nH]1)c1nccs1

>  <inchikey>  (252) 
ABSULXPPDQRMJA-SECBINFHSA-N

>  <SLURM_JOB_NAME>  (252) 
BulkDock.place:Flavi_NS5_RdRp:RdRp_knitwork_green_site_rna_tunnel_pure_split4000_batch004

>  <scratch_subdir>  (252) 
/opt/xchem-fragalysis-2/maxwin/BulkDock/SCRATCH/217075/C25862-P120

>  <alias>  (252) 
None

>  <SLURM_JOB_ID>  (252) 
217075

>  <exports>  (252) 
['/opt/xchem-fragalysis-2/maxwin/BulkDock/OUTPUTS/RdRp_knitwork_green_site_rna_tunnel_pure_split4000_batch004_217075.sdf']

$$$$
108479
     RDKit          3D

 19 22  0  0  0  0  0  0  0  0999 V2000
  -18.7152  -33.3610  -20.0993 C   0  0  0  0  0  0  0  0  0  0  0  0
  -19.4967  -32.2584  -20.4504 C   0  0  0  0  0  0  0  0  0  0  0  0
  -20.8010  -32.4245  -20.9352 C   0  0  0  0  0  0  0  0  0  0  0  0
  -21.3102  -33.7300  -21.0832 C   0  0  0  0  0  0  0  0  0  0  0  0
  -22.5372  -34.3279  -21.4661 C   0  0  0  0  0  0  0  0  0  0  0  0
  -23.8917  -33.6542  -21.6734 C   0  0  0  0  0  0  0  0  0  0  0  0
  -25.0822  -34.2333  -22.0252 C   0  0  0  0  0  0  0  0  0  0  0  0
  -26.1102  -33.3954  -21.6996 N   0  0  0  0  0  0  0  0  0  0  0  0
  -25.5559  -32.3140  -21.1843 C   0  0  0  0  0  0  0  0  0  0  0  0
  -26.2532  -31.1832  -20.4977 C   0  0  1  0  0  0  0  0  0  0  0  0
  -25.8305  -31.0060  -19.0445 C   0  0  0  0  0  0  0  0  0  0  0  0
  -25.8462  -29.5035  -18.8555 C   0  0  0  0  0  0  0  0  0  0  0  0
  -25.4070  -28.9854  -20.2033 C   0  0  0  0  0  0  0  0  0  0  0  0
  -26.0278  -29.8849  -21.1496 N   0  0  0  0  0  0  0  0  0  0  0  0
  -24.1942  -32.3641  -21.3470 N   0  0  0  0  0  0  0  0  0  0  0  0
  -22.3464  -35.6892  -21.4713 C   0  0  0  0  0  0  0  0  0  0  0  0
  -21.1004  -35.9817  -21.0199 O   0  0  0  0  0  0  0  0  0  0  0  0
  -20.4847  -34.7995  -20.7556 C   0  0  0  0  0  0  0  0  0  0  0  0
  -19.1986  -34.6648  -20.2419 C   0  0  0  0  0  0  0  0  0  0  0  0
  1  2  2  0
  2  3  1  0
  3  4  2  0
  4  5  1  0
  5  6  1  0
  6  7  2  0
  7  8  1  0
  8  9  2  0
 10  9  1  6
 10 11  1  0
 11 12  1  0
 12 13  1  0
 13 14  1  0
  9 15  1  0
  5 16  2  0
 16 17  1  0
 17 18  1  0
 18 19  2  0
 19  1  1  0
 18  4  1  0
 15  6  1  0
 14 10  1  0
M  END
>  <HIPPO Pose ID>  (253) 
108479

>  <fragmenstein_outcome>  (253) 
acceptable

>  <energy_score>  (253) 
-22.738091

>  <distance_score>  (253) 
0.97215

>  <fragmenstein_mode>  (253) 
expansion

>  <HIPPO Compound ID>  (253) 
38001

>  <name>  (253) 
RFWIPXMNDSRMTE-GFCCVEGCSA-N

>  <ref_pdb>  (253) 
3vws-b

>  <ref_mols>  (253) 
d0378a,3vws-b

>  <csv_name>  (253) 
RdRp_knitwork_green_site_rna_tunnel_pure_split4000_batch013.csv

>  <fragmenstein_runtime>  (253) 
3.157245

>  <tags>  (253) 
['Fragmenstein placed']

>  <original ID>  (253) 
RFWIPXMNDSRMTE-GFCCVEGCSA-N

>  <fragmenstein_error>  (253) 
None

>  <original SMILES>  (253) 
c1ccc2c(-c3cnc([C@H]4CCCN4)[nH]3)coc2c1

>  <inchikey>  (253) 
RFWIPXMNDSRMTE-GFCCVEGCSA-N

>  <SLURM_JOB_NAME>  (253) 
BulkDock.place:Flavi_NS5_RdRp:RdRp_knitwork_green_site_rna_tunnel_pure_split4000_batch013

>  <scratch_subdir>  (253) 
/opt/xchem-fragalysis-2/maxwin/BulkDock/SCRATCH/217084/C38001-P217

>  <alias>  (253) 
None

>  <SLURM_JOB_ID>  (253) 
217084

>  <exports>  (253) 
['/opt/xchem-fragalysis-2/maxwin/BulkDock/OUTPUTS/RdRp_knitwork_green_site_rna_tunnel_pure_split4000_batch013_217084.sdf']

$$$$
108625
     RDKit          3D

 22 24  0  0  0  0  0  0  0  0999 V2000
  -28.4458  -29.7772  -21.0505 C   0  0  0  0  0  0  0  0  0  0  0  0
  -27.7196  -30.1687  -19.8948 O   0  0  0  0  0  0  0  0  0  0  0  0
  -26.4901  -30.7403  -20.0932 C   0  0  0  0  0  0  0  0  0  0  0  0
  -25.8489  -30.9523  -21.3145 C   0  0  0  0  0  0  0  0  0  0  0  0
  -24.5542  -31.5166  -21.3641 C   0  0  0  0  0  0  0  0  0  0  0  0
  -23.8740  -31.8861  -20.1945 C   0  0  0  0  0  0  0  0  0  0  0  0
  -22.4554  -32.4922  -20.2184 C   0  0  0  0  0  0  0  0  0  0  0  0
  -21.4138  -31.6744  -19.3792 C   0  0  0  0  0  0  0  0  0  0  0  0
  -20.0487  -32.1722  -19.0229 N   0  0  0  0  0  0  0  0  0  0  0  0
  -19.4027  -31.4953  -17.8087 C   0  0  2  0  0  0  0  0  0  0  0  0
  -17.9063  -31.8377  -17.8596 C   0  0  0  0  0  0  0  0  0  0  0  0
  -20.0293  -31.9956  -16.5407 C   0  0  0  0  0  0  0  0  0  0  0  0
  -21.2304  -31.7212  -15.8910 C   0  0  0  0  0  0  0  0  0  0  0  0
  -21.8765  -32.9763  -15.8117 C   0  0  0  0  0  0  0  0  0  0  0  0
  -23.2252  -33.3141  -15.7757 C   0  0  0  0  0  0  0  0  0  0  0  0
  -23.5659  -34.3201  -16.6705 C   0  0  0  0  0  0  0  0  0  0  0  0
  -22.5999  -35.0086  -17.4185 C   0  0  0  0  0  0  0  0  0  0  0  0
  -21.2466  -34.9052  -17.1673 C   0  0  0  0  0  0  0  0  0  0  0  0
  -20.9477  -33.8425  -16.3598 C   0  0  0  0  0  0  0  0  0  0  0  0
  -19.7165  -33.2989  -16.3110 O   0  0  0  0  0  0  0  0  0  0  0  0
  -24.5507  -31.6908  -18.9816 C   0  0  0  0  0  0  0  0  0  0  0  0
  -25.8318  -31.1236  -18.9282 C   0  0  0  0  0  0  0  0  0  0  0  0
  1  2  1  0
  2  3  1  0
  3  4  2  0
  4  5  1  0
  5  6  2  0
  6  7  1  0
  7  8  1  0
  8  9  1  0
  9 10  1  0
 10 11  1  1
 10 12  1  0
 12 13  2  0
 13 14  1  0
 14 15  2  0
 15 16  1  0
 16 17  2  0
 17 18  1  0
 18 19  2  0
 19 20  1  0
  6 21  1  0
 21 22  2  0
 22  3  1  0
 20 12  1  0
 19 14  1  0
M  END
>  <HIPPO Pose ID>  (254) 
108625

>  <fragmenstein_outcome>  (254) 
acceptable

>  <energy_score>  (254) 
28.428774

>  <distance_score>  (254) 
1.829102

>  <fragmenstein_mode>  (254) 
expansion

>  <HIPPO Compound ID>  (254) 
41639

>  <name>  (254) 
ALKTZTZRIISUBW-CQSZACIVSA-N

>  <ref_pdb>  (254) 
z0521a

>  <ref_mols>  (254) 
z0521a,3vws-b,3vws-a

>  <csv_name>  (254) 
RdRp_knitwork_green_site_rna_tunnel_pure_split4000_batch000.csv

>  <fragmenstein_runtime>  (254) 
4.100829

>  <tags>  (254) 
['Fragmenstein placed']

>  <original ID>  (254) 
ALKTZTZRIISUBW-CQSZACIVSA-N

>  <fragmenstein_error>  (254) 
None

>  <original SMILES>  (254) 
COc1ccc(CCN[C@H](C)c2cc3ccccc3o2)cc1

>  <inchikey>  (254) 
ALKTZTZRIISUBW-CQSZACIVSA-N

>  <SLURM_JOB_NAME>  (254) 
BulkDock.place:Flavi_NS5_RdRp:RdRp_knitwork_green_site_rna_tunnel_pure_split4000_batch000

>  <scratch_subdir>  (254) 
/opt/xchem-fragalysis-2/maxwin/BulkDock/SCRATCH/217071/C41639-P141

>  <alias>  (254) 
None

>  <SLURM_JOB_ID>  (254) 
217071

>  <exports>  (254) 
['/opt/xchem-fragalysis-2/maxwin/BulkDock/OUTPUTS/RdRp_knitwork_green_site_rna_tunnel_pure_split4000_batch000_217071.sdf']

$$$$
108672
     RDKit          3D

 20 22  0  0  0  0  0  0  0  0999 V2000
  -25.6684  -33.9518  -19.5749 C   0  0  0  0  0  0  0  0  0  0  0  0
  -25.0170  -33.0105  -20.5885 C   0  0  1  0  0  0  0  0  0  0  0  0
  -25.2854  -33.5579  -21.9313 N   0  0  0  0  0  0  0  0  0  0  0  0
  -24.1186  -33.7544  -22.7962 C   0  0  1  0  0  0  0  0  0  0  0  0
  -23.7800  -32.5058  -23.5891 C   0  0  0  0  0  0  0  0  0  0  0  0
  -22.9744  -34.4105  -22.0766 C   0  0  0  0  0  0  0  0  0  0  0  0
  -22.8950  -35.7668  -21.8080 C   0  0  0  0  0  0  0  0  0  0  0  0
  -21.7750  -36.0699  -21.1131 O   0  0  0  0  0  0  0  0  0  0  0  0
  -21.1060  -34.9091  -20.9060 C   0  0  0  0  0  0  0  0  0  0  0  0
  -19.9047  -34.7971  -20.2076 C   0  0  0  0  0  0  0  0  0  0  0  0
  -19.3544  -33.5166  -20.1044 C   0  0  0  0  0  0  0  0  0  0  0  0
  -19.9982  -32.4132  -20.6659 C   0  0  0  0  0  0  0  0  0  0  0  0
  -21.2151  -32.5595  -21.3512 C   0  0  0  0  0  0  0  0  0  0  0  0
  -21.7846  -33.8444  -21.4906 C   0  0  0  0  0  0  0  0  0  0  0  0
  -25.5128  -31.5878  -20.4730 C   0  0  0  0  0  0  0  0  0  0  0  0
  -26.2449  -31.0091  -19.4540 C   0  0  0  0  0  0  0  0  0  0  0  0
  -26.2703  -29.6796  -19.7403 N   0  0  0  0  0  0  0  0  0  0  0  0
  -26.8393  -28.6557  -18.9119 C   0  0  0  0  0  0  0  0  0  0  0  0
  -25.6283  -29.4908  -20.9232 C   0  0  0  0  0  0  0  0  0  0  0  0
  -25.1635  -30.6211  -21.4008 N   0  0  0  0  0  0  0  0  0  0  0  0
  2  1  1  1
  2  3  1  0
  3  4  1  0
  4  5  1  1
  4  6  1  0
  6  7  2  0
  7  8  1  0
  8  9  1  0
  9 10  2  0
 10 11  1  0
 11 12  2  0
 12 13  1  0
 13 14  2  0
  2 15  1  0
 15 16  2  0
 16 17  1  0
 17 18  1  0
 17 19  1  0
 19 20  2  0
 14  6  1  0
 20 15  1  0
 14  9  1  0
M  END
>  <HIPPO Pose ID>  (255) 
108672

>  <fragmenstein_outcome>  (255) 
acceptable

>  <energy_score>  (255) 
-30.66017

>  <distance_score>  (255) 
0.752698

>  <fragmenstein_mode>  (255) 
expansion

>  <HIPPO Compound ID>  (255) 
32851

>  <name>  (255) 
RRTAKTTUWMOXFH-NWDGAFQWSA-N

>  <ref_pdb>  (255) 
3vws-b

>  <ref_mols>  (255) 
d0378a,3vws-b

>  <csv_name>  (255) 
RdRp_knitwork_green_site_rna_tunnel_pure_split4000_batch013.csv

>  <fragmenstein_runtime>  (255) 
2.579597

>  <tags>  (255) 
['Fragmenstein placed']

>  <original ID>  (255) 
RRTAKTTUWMOXFH-NWDGAFQWSA-N

>  <fragmenstein_error>  (255) 
None

>  <original SMILES>  (255) 
C[C@H](N[C@H](C)c1cn(C)cn1)c1coc2ccccc12

>  <inchikey>  (255) 
RRTAKTTUWMOXFH-NWDGAFQWSA-N

>  <SLURM_JOB_NAME>  (255) 
BulkDock.place:Flavi_NS5_RdRp:RdRp_knitwork_green_site_rna_tunnel_pure_split4000_batch013

>  <scratch_subdir>  (255) 
/opt/xchem-fragalysis-2/maxwin/BulkDock/SCRATCH/217084/C32851-P217

>  <alias>  (255) 
None

>  <SLURM_JOB_ID>  (255) 
217084

>  <exports>  (255) 
['/opt/xchem-fragalysis-2/maxwin/BulkDock/OUTPUTS/RdRp_knitwork_green_site_rna_tunnel_pure_split4000_batch013_217084.sdf']

$$$$
109230
     RDKit          3D

 22 24  0  0  0  0  0  0  0  0999 V2000
  -24.7421  -36.8214  -22.0029 C   0  0  0  0  0  0  0  0  0  0  0  0
  -24.1394  -36.0872  -20.8200 C   0  0  2  0  0  0  0  0  0  0  0  0
  -24.9637  -35.0080  -20.3097 N   0  0  0  0  0  0  0  0  0  0  0  0
  -25.8685  -33.9960  -21.0539 C   0  0  0  0  0  0  0  0  0  0  0  0
  -26.1510  -33.9231  -22.1834 O   0  0  0  0  0  0  0  0  0  0  0  0
  -26.3111  -32.9194  -19.9951 C   0  0  1  0  0  0  0  0  0  0  0  0
  -25.7316  -33.1213  -18.7105 O   0  0  0  0  0  0  0  0  0  0  0  0
  -25.8835  -31.5428  -20.4333 C   0  0  0  0  0  0  0  0  0  0  0  0
  -25.0710  -31.1195  -21.4723 C   0  0  0  0  0  0  0  0  0  0  0  0
  -24.9707  -29.7541  -21.5204 N   0  0  0  0  0  0  0  0  0  0  0  0
  -25.7167  -29.3271  -20.5315 C   0  0  0  0  0  0  0  0  0  0  0  0
  -26.2837  -30.3641  -19.8490 N   0  0  0  0  0  0  0  0  0  0  0  0
  -27.1575  -30.2054  -18.7213 C   0  0  0  0  0  0  0  0  0  0  0  0
  -22.8725  -35.3683  -21.1559 C   0  0  0  0  0  0  0  0  0  0  0  0
  -22.6315  -34.2172  -21.8872 C   0  0  0  0  0  0  0  0  0  0  0  0
  -21.4268  -33.6790  -21.3754 C   0  0  0  0  0  0  0  0  0  0  0  0
  -20.7411  -32.4579  -21.4918 C   0  0  0  0  0  0  0  0  0  0  0  0
  -19.5336  -32.2999  -20.7977 C   0  0  0  0  0  0  0  0  0  0  0  0
  -19.0052  -33.3381  -20.0240 C   0  0  0  0  0  0  0  0  0  0  0  0
  -19.6837  -34.5532  -19.8809 C   0  0  0  0  0  0  0  0  0  0  0  0
  -20.8997  -34.6621  -20.5472 C   0  0  0  0  0  0  0  0  0  0  0  0
  -21.7704  -35.6995  -20.4287 O   0  0  0  0  0  0  0  0  0  0  0  0
  2  1  1  6
  2  3  1  0
  3  4  1  0
  4  5  2  0
  4  6  1  0
  6  7  1  1
  6  8  1  0
  8  9  2  0
  9 10  1  0
 10 11  2  0
 11 12  1  0
 12 13  1  0
  2 14  1  0
 14 15  2  0
 15 16  1  0
 16 17  2  0
 17 18  1  0
 18 19  2  0
 19 20  1  0
 20 21  2  0
 21 22  1  0
 12  8  1  0
 22 14  1  0
 21 16  1  0
M  END
>  <HIPPO Pose ID>  (256) 
109230

>  <fragmenstein_outcome>  (256) 
acceptable

>  <energy_score>  (256) 
-35.060543

>  <distance_score>  (256) 
0.831933

>  <fragmenstein_mode>  (256) 
expansion

>  <HIPPO Compound ID>  (256) 
42761

>  <name>  (256) 
FZPSEHXRGSKGHG-BONVTDFDSA-N

>  <ref_pdb>  (256) 
3vws-b

>  <ref_mols>  (256) 
d0378a,3vws-b

>  <csv_name>  (256) 
RdRp_knitwork_green_site_rna_tunnel_pure_split4000_batch013.csv

>  <fragmenstein_runtime>  (256) 
2.818085

>  <tags>  (256) 
['Fragmenstein placed']

>  <original ID>  (256) 
FZPSEHXRGSKGHG-BONVTDFDSA-N

>  <fragmenstein_error>  (256) 
None

>  <original SMILES>  (256) 
C[C@H](NC(=O)[C@@H](O)c1cncn1C)c1cc2ccccc2o1

>  <inchikey>  (256) 
FZPSEHXRGSKGHG-BONVTDFDSA-N

>  <SLURM_JOB_NAME>  (256) 
BulkDock.place:Flavi_NS5_RdRp:RdRp_knitwork_green_site_rna_tunnel_pure_split4000_batch013

>  <scratch_subdir>  (256) 
/opt/xchem-fragalysis-2/maxwin/BulkDock/SCRATCH/217084/C42761-P217

>  <alias>  (256) 
None

>  <SLURM_JOB_ID>  (256) 
217084

>  <exports>  (256) 
['/opt/xchem-fragalysis-2/maxwin/BulkDock/OUTPUTS/RdRp_knitwork_green_site_rna_tunnel_pure_split4000_batch013_217084.sdf']

$$$$
109400
     RDKit          3D

 23 25  0  0  0  0  0  0  0  0999 V2000
  -24.0740  -32.0845  -16.3399 C   0  0  0  0  0  0  0  0  0  0  0  0
  -24.8364  -32.5122  -17.5978 C   0  0  1  0  0  0  0  0  0  0  0  0
  -24.8312  -34.0579  -17.7254 C   0  0  0  0  0  0  0  0  0  0  0  0
  -24.0082  -34.3951  -18.8487 N   0  0  0  0  0  0  0  0  0  0  0  0
  -24.3912  -34.8600  -20.2660 C   0  0  0  0  0  0  0  0  0  0  0  0
  -25.4329  -35.1166  -20.7211 O   0  0  0  0  0  0  0  0  0  0  0  0
  -23.1428  -34.8256  -21.0120 C   0  0  0  0  0  0  0  0  0  0  0  0
  -22.7443  -33.7873  -21.8406 C   0  0  0  0  0  0  0  0  0  0  0  0
  -21.4255  -33.4795  -21.4112 C   0  0  0  0  0  0  0  0  0  0  0  0
  -20.5826  -32.3604  -21.5040 C   0  0  0  0  0  0  0  0  0  0  0  0
  -19.3481  -32.4025  -20.8414 C   0  0  0  0  0  0  0  0  0  0  0  0
  -18.9299  -33.5480  -20.1557 C   0  0  0  0  0  0  0  0  0  0  0  0
  -19.7558  -34.6715  -20.0523 C   0  0  0  0  0  0  0  0  0  0  0  0
  -21.0066  -34.5633  -20.6504 C   0  0  0  0  0  0  0  0  0  0  0  0
  -22.0412  -35.4251  -20.4606 O   0  0  0  0  0  0  0  0  0  0  0  0
  -26.1761  -31.9122  -17.5764 N   0  0  0  0  0  0  0  0  0  0  0  0
  -26.8856  -31.9925  -18.8484 C   0  0  0  0  0  0  0  0  0  0  0  0
  -26.2329  -31.1511  -19.8835 C   0  0  0  0  0  0  0  0  0  0  0  0
  -25.5982  -31.5057  -21.0558 C   0  0  0  0  0  0  0  0  0  0  0  0
  -25.1076  -30.4118  -21.7193 N   0  0  0  0  0  0  0  0  0  0  0  0
  -25.4650  -29.3925  -20.9776 C   0  0  0  0  0  0  0  0  0  0  0  0
  -26.1233  -29.7854  -19.8503 N   0  0  0  0  0  0  0  0  0  0  0  0
  -26.5953  -28.8887  -18.8306 C   0  0  0  0  0  0  0  0  0  0  0  0
  2  1  1  1
  2  3  1  0
  3  4  1  0
  4  5  1  0
  5  6  2  0
  5  7  1  0
  7  8  2  0
  8  9  1  0
  9 10  2  0
 10 11  1  0
 11 12  2  0
 12 13  1  0
 13 14  2  0
 14 15  1  0
  2 16  1  0
 16 17  1  0
 17 18  1  0
 18 19  2  0
 19 20  1  0
 20 21  2  0
 21 22  1  0
 22 23  1  0
 15  7  1  0
 22 18  1  0
 14  9  1  0
M  END
>  <HIPPO Pose ID>  (257) 
109400

>  <fragmenstein_outcome>  (257) 
acceptable

>  <energy_score>  (257) 
-8.047209

>  <distance_score>  (257) 
0.923553

>  <fragmenstein_mode>  (257) 
expansion

>  <HIPPO Compound ID>  (257) 
43340

>  <name>  (257) 
VKBWFRXPMRTREB-LBPRGKRZSA-N

>  <ref_pdb>  (257) 
3vws-b

>  <ref_mols>  (257) 
d0378a,3vws-b

>  <csv_name>  (257) 
RdRp_knitwork_green_site_rna_tunnel_pure_split4000_batch013.csv

>  <fragmenstein_runtime>  (257) 
5.897739

>  <tags>  (257) 
['Fragmenstein placed']

>  <original ID>  (257) 
VKBWFRXPMRTREB-LBPRGKRZSA-N

>  <fragmenstein_error>  (257) 
None

>  <original SMILES>  (257) 
C[C@@H](CNC(=O)c1cc2ccccc2o1)NCc1cncn1C

>  <inchikey>  (257) 
VKBWFRXPMRTREB-LBPRGKRZSA-N

>  <SLURM_JOB_NAME>  (257) 
BulkDock.place:Flavi_NS5_RdRp:RdRp_knitwork_green_site_rna_tunnel_pure_split4000_batch013

>  <scratch_subdir>  (257) 
/opt/xchem-fragalysis-2/maxwin/BulkDock/SCRATCH/217084/C43340-P217

>  <alias>  (257) 
None

>  <SLURM_JOB_ID>  (257) 
217084

>  <exports>  (257) 
['/opt/xchem-fragalysis-2/maxwin/BulkDock/OUTPUTS/RdRp_knitwork_green_site_rna_tunnel_pure_split4000_batch013_217084.sdf']

$$$$
110051
     RDKit          3D

 25 27  0  0  0  0  0  0  0  0999 V2000
  -20.0899  -32.9059  -16.7612 C   0  0  0  0  0  0  0  0  0  0  0  0
  -21.1959  -33.0573  -17.8028 C   0  0  2  0  0  0  0  0  0  0  0  0
  -22.5144  -32.3713  -17.3724 C   0  0  0  0  0  0  0  0  0  0  0  0
  -23.6598  -32.5415  -18.3859 C   0  0  2  0  0  0  0  0  0  0  0  0
  -23.2900  -32.2021  -19.8219 C   0  0  0  0  0  0  0  0  0  0  0  0
  -24.8764  -31.8379  -17.9976 N   0  0  0  0  0  0  0  0  0  0  0  0
  -25.1848  -30.3407  -17.9440 C   0  0  0  0  0  0  0  0  0  0  0  0
  -24.4972  -29.4238  -18.1264 O   0  0  0  0  0  0  0  0  0  0  0  0
  -26.6001  -30.1154  -17.5776 C   0  0  0  0  0  0  0  0  0  0  0  0
  -26.8685  -29.9578  -16.2147 C   0  0  0  0  0  0  0  0  0  0  0  0
  -28.1782  -29.7539  -15.7974 C   0  0  0  0  0  0  0  0  0  0  0  0
  -29.1699  -29.7194  -16.7537 C   0  0  0  0  0  0  0  0  0  0  0  0
  -28.9397  -29.8936  -18.0706 N   0  0  0  0  0  0  0  0  0  0  0  0
  -27.6550  -30.0905  -18.5030 C   0  0  0  0  0  0  0  0  0  0  0  0
  -27.5416  -30.3807  -19.9847 C   0  0  0  0  0  0  0  0  0  0  0  0
  -26.4593  -29.8708  -20.8899 C   0  0  0  0  0  0  0  0  0  0  0  0
  -27.8192  -29.2494  -20.9548 C   0  0  0  0  0  0  0  0  0  0  0  0
  -21.3513  -34.4613  -18.1217 N   0  0  0  0  0  0  0  0  0  0  0  0
  -21.3406  -35.7022  -17.2088 C   0  0  0  0  0  0  0  0  0  0  0  0
  -21.2821  -35.7856  -16.0465 O   0  0  0  0  0  0  0  0  0  0  0  0
  -21.3117  -36.9093  -18.0734 C   0  0  0  0  0  0  0  0  0  0  0  0
  -21.3775  -38.2657  -17.6594 C   0  0  0  0  0  0  0  0  0  0  0  0
  -21.3059  -39.0071  -18.8133 C   0  0  0  0  0  0  0  0  0  0  0  0
  -21.2241  -38.1041  -19.8253 N   0  0  0  0  0  0  0  0  0  0  0  0
  -21.1675  -36.8286  -19.4182 N   0  0  0  0  0  0  0  0  0  0  0  0
  2  1  1  1
  2  3  1  0
  3  4  1  0
  4  5  1  6
  4  6  1  0
  6  7  1  0
  7  8  2  0
  7  9  1  0
  9 10  2  0
 10 11  1  0
 11 12  2  0
 12 13  1  0
 13 14  2  0
 14 15  1  0
 15 16  1  0
 16 17  1  0
  2 18  1  0
 18 19  1  0
 19 20  2  0
 19 21  1  0
 21 22  1  0
 22 23  2  0
 23 24  1  0
 24 25  1  0
 14  9  1  0
 17 15  1  0
 25 21  2  0
M  END
>  <HIPPO Pose ID>  (258) 
110051

>  <fragmenstein_outcome>  (258) 
acceptable

>  <energy_score>  (258) 
-19.890427

>  <distance_score>  (258) 
0.997073

>  <fragmenstein_mode>  (258) 
expansion

>  <HIPPO Compound ID>  (258) 
16556

>  <name>  (258) 
VSYMVTMSKIFOQR-NWDGAFQWSA-N

>  <ref_pdb>  (258) 
z0637a

>  <ref_mols>  (258) 
z0215a,z0637a

>  <csv_name>  (258) 
RdRp_knitwork_green_site_rna_tunnel_pure_split4000_batch010.csv

>  <fragmenstein_runtime>  (258) 
10.46408

>  <tags>  (258) 
['Fragmenstein placed']

>  <original ID>  (258) 
VSYMVTMSKIFOQR-NWDGAFQWSA-N

>  <fragmenstein_error>  (258) 
None

>  <original SMILES>  (258) 
C[C@H](C[C@H](C)NC(=O)c1cccnc1C1CC1)NC(=O)c1cc[nH]n1

>  <inchikey>  (258) 
VSYMVTMSKIFOQR-NWDGAFQWSA-N

>  <SLURM_JOB_NAME>  (258) 
BulkDock.place:Flavi_NS5_RdRp:RdRp_knitwork_green_site_rna_tunnel_pure_split4000_batch010

>  <scratch_subdir>  (258) 
/opt/xchem-fragalysis-2/maxwin/BulkDock/SCRATCH/217081/C16556-P151

>  <alias>  (258) 
None

>  <SLURM_JOB_ID>  (258) 
217081

>  <exports>  (258) 
['/opt/xchem-fragalysis-2/maxwin/BulkDock/OUTPUTS/RdRp_knitwork_green_site_rna_tunnel_pure_split4000_batch010_217081.sdf']

$$$$
110326
     RDKit          3D

 16 17  0  0  0  0  0  0  0  0999 V2000
  -24.2225  -32.0389  -20.2950 C   0  0  0  0  0  0  0  0  0  0  0  0
  -25.5953  -31.6676  -20.1401 O   0  0  0  0  0  0  0  0  0  0  0  0
  -26.0757  -30.7442  -21.0065 C   0  0  0  0  0  0  0  0  0  0  0  0
  -25.4054  -30.1389  -21.8277 O   0  0  0  0  0  0  0  0  0  0  0  0
  -27.5620  -30.6224  -20.8688 C   0  0  2  0  0  0  0  0  0  0  0  0
  -28.1782  -29.9618  -22.1056 C   0  0  0  0  0  0  0  0  0  0  0  0
  -29.5450  -29.6121  -21.5804 C   0  0  0  0  0  0  0  0  0  0  0  0
  -30.5743  -29.4692  -22.2092 O   0  0  0  0  0  0  0  0  0  0  0  0
  -29.4224  -29.4727  -20.2221 N   0  0  0  0  0  0  0  0  0  0  0  0
  -28.0717  -29.6945  -19.7745 C   0  0  1  0  0  0  0  0  0  0  0  0
  -28.0192  -30.0590  -18.3102 C   0  0  0  0  0  0  0  0  0  0  0  0
  -26.8143  -30.0453  -17.6102 C   0  0  0  0  0  0  0  0  0  0  0  0
  -26.8247  -30.2975  -16.2410 C   0  0  0  0  0  0  0  0  0  0  0  0
  -28.0307  -30.5513  -15.6036 C   0  0  0  0  0  0  0  0  0  0  0  0
  -29.1856  -30.5445  -16.3618 C   0  0  0  0  0  0  0  0  0  0  0  0
  -29.2071  -30.2955  -17.6878 N   0  0  0  0  0  0  0  0  0  0  0  0
  1  2  1  0
  2  3  1  0
  3  4  2  0
  5  3  1  6
  5  6  1  0
  6  7  1  0
  7  8  2  0
  7  9  1  0
  9 10  1  0
 10 11  1  1
 11 12  2  0
 12 13  1  0
 13 14  2  0
 14 15  1  0
 15 16  2  0
 10  5  1  0
 16 11  1  0
M  END
>  <HIPPO Pose ID>  (259) 
110326

>  <fragmenstein_outcome>  (259) 
acceptable

>  <energy_score>  (259) 
-17.834505

>  <distance_score>  (259) 
0.839238

>  <fragmenstein_mode>  (259) 
expansion

>  <HIPPO Compound ID>  (259) 
1614

>  <name>  (259) 
LTWQQOIPNFENKP-GMSGAONNSA-N

>  <ref_pdb>  (259) 
z0215a

>  <ref_mols>  (259) 
z0215a,z1018a

>  <csv_name>  (259) 
RdRp_knitwork_green_site_rna_tunnel_pure_split4000_batch005.csv

>  <fragmenstein_runtime>  (259) 
2.139952

>  <tags>  (259) 
['Fragmenstein placed']

>  <original ID>  (259) 
LTWQQOIPNFENKP-GMSGAONNSA-N

>  <fragmenstein_error>  (259) 
None

>  <original SMILES>  (259) 
COC(=O)[C@@H]1CC(=O)N[C@H]1c1ccccn1

>  <inchikey>  (259) 
LTWQQOIPNFENKP-GMSGAONNSA-N

>  <SLURM_JOB_NAME>  (259) 
BulkDock.place:Flavi_NS5_RdRp:RdRp_knitwork_green_site_rna_tunnel_pure_split4000_batch005

>  <scratch_subdir>  (259) 
/opt/xchem-fragalysis-2/maxwin/BulkDock/SCRATCH/217076/C1614-P104

>  <alias>  (259) 
None

>  <SLURM_JOB_ID>  (259) 
217076

>  <exports>  (259) 
['/opt/xchem-fragalysis-2/maxwin/BulkDock/OUTPUTS/RdRp_knitwork_green_site_rna_tunnel_pure_split4000_batch005_217076.sdf']

$$$$
110328
     RDKit          3D

 16 17  0  0  0  0  0  0  0  0999 V2000
  -24.8437  -31.8858  -19.8592 C   0  0  0  0  0  0  0  0  0  0  0  0
  -26.0990  -31.2016  -19.7725 O   0  0  0  0  0  0  0  0  0  0  0  0
  -26.6600  -30.8769  -20.9573 C   0  0  0  0  0  0  0  0  0  0  0  0
  -26.1415  -31.0876  -22.0481 O   0  0  0  0  0  0  0  0  0  0  0  0
  -28.0453  -30.3235  -20.8087 C   0  0  2  0  0  0  0  0  0  0  0  0
  -28.4469  -29.3949  -21.9665 C   0  0  0  0  0  0  0  0  0  0  0  0
  -29.8277  -29.0158  -21.4956 C   0  0  0  0  0  0  0  0  0  0  0  0
  -30.7837  -28.7134  -22.1801 O   0  0  0  0  0  0  0  0  0  0  0  0
  -29.7908  -29.0820  -20.1186 N   0  0  0  0  0  0  0  0  0  0  0  0
  -28.4669  -29.4257  -19.6564 C   0  0  1  0  0  0  0  0  0  0  0  0
  -28.4078  -29.8133  -18.2075 C   0  0  0  0  0  0  0  0  0  0  0  0
  -27.1982  -29.7301  -17.5088 C   0  0  0  0  0  0  0  0  0  0  0  0
  -27.1950  -29.8381  -16.1251 C   0  0  0  0  0  0  0  0  0  0  0  0
  -28.4034  -29.9983  -15.4720 C   0  0  0  0  0  0  0  0  0  0  0  0
  -29.5558  -30.0804  -16.2333 C   0  0  0  0  0  0  0  0  0  0  0  0
  -29.5885  -30.0032  -17.5754 N   0  0  0  0  0  0  0  0  0  0  0  0
  1  2  1  0
  2  3  1  0
  3  4  2  0
  5  3  1  1
  5  6  1  0
  6  7  1  0
  7  8  2  0
  7  9  1  0
  9 10  1  0
 10 11  1  1
 11 12  2  0
 12 13  1  0
 13 14  2  0
 14 15  1  0
 15 16  2  0
 10  5  1  0
 16 11  1  0
M  END
>  <HIPPO Pose ID>  (260) 
110328

>  <fragmenstein_outcome>  (260) 
acceptable

>  <energy_score>  (260) 
-7.948123

>  <distance_score>  (260) 
0.858372

>  <fragmenstein_mode>  (260) 
expansion

>  <HIPPO Compound ID>  (260) 
1614

>  <name>  (260) 
LTWQQOIPNFENKP-GMSGAONNSA-N

>  <ref_pdb>  (260) 
z1018a

>  <ref_mols>  (260) 
z0215a,z1018a

>  <csv_name>  (260) 
RdRp_knitwork_green_site_rna_tunnel_pure_split4000_batch005.csv

>  <fragmenstein_runtime>  (260) 
2.181853

>  <tags>  (260) 
['Fragmenstein placed']

>  <original ID>  (260) 
LTWQQOIPNFENKP-GMSGAONNSA-N

>  <fragmenstein_error>  (260) 
None

>  <original SMILES>  (260) 
COC(=O)[C@@H]1CC(=O)N[C@H]1c1ccccn1

>  <inchikey>  (260) 
LTWQQOIPNFENKP-GMSGAONNSA-N

>  <SLURM_JOB_NAME>  (260) 
BulkDock.place:Flavi_NS5_RdRp:RdRp_knitwork_green_site_rna_tunnel_pure_split4000_batch005

>  <scratch_subdir>  (260) 
/opt/xchem-fragalysis-2/maxwin/BulkDock/SCRATCH/217076/C1614-P206

>  <alias>  (260) 
None

>  <SLURM_JOB_ID>  (260) 
217076

>  <exports>  (260) 
['/opt/xchem-fragalysis-2/maxwin/BulkDock/OUTPUTS/RdRp_knitwork_green_site_rna_tunnel_pure_split4000_batch005_217076.sdf']

$$$$
110361
     RDKit          3D

 17 18  0  0  0  0  0  0  0  0999 V2000
  -24.3626  -32.1628  -20.3522 C   0  0  0  0  0  0  0  0  0  0  0  0
  -25.7611  -31.8612  -20.2984 O   0  0  0  0  0  0  0  0  0  0  0  0
  -26.1512  -30.7834  -21.0143 C   0  0  0  0  0  0  0  0  0  0  0  0
  -25.3985  -30.0812  -21.6714 O   0  0  0  0  0  0  0  0  0  0  0  0
  -27.6376  -30.6151  -20.9920 C   0  0  2  0  0  0  0  0  0  0  0  0
  -28.0661  -29.5217  -21.9529 C   0  0  0  0  0  0  0  0  0  0  0  0
  -29.5182  -29.4109  -21.6154 C   0  0  0  0  0  0  0  0  0  0  0  0
  -30.4313  -29.1976  -22.3913 O   0  0  0  0  0  0  0  0  0  0  0  0
  -29.6536  -29.6520  -20.2598 N   0  0  0  0  0  0  0  0  0  0  0  0
  -30.9569  -30.1004  -19.8104 C   0  0  0  0  0  0  0  0  0  0  0  0
  -28.4491  -30.2853  -19.7346 C   0  0  2  0  0  0  0  0  0  0  0  0
  -27.9904  -29.8762  -18.3457 C   0  0  0  0  0  0  0  0  0  0  0  0
  -26.6684  -29.9208  -17.9202 C   0  0  0  0  0  0  0  0  0  0  0  0
  -26.3789  -29.9103  -16.5540 C   0  0  0  0  0  0  0  0  0  0  0  0
  -27.4102  -29.8696  -15.6311 C   0  0  0  0  0  0  0  0  0  0  0  0
  -28.6959  -29.7927  -16.1137 C   0  0  0  0  0  0  0  0  0  0  0  0
  -28.9955  -29.7803  -17.4274 N   0  0  0  0  0  0  0  0  0  0  0  0
  1  2  1  0
  2  3  1  0
  3  4  2  0
  5  3  1  1
  5  6  1  0
  6  7  1  0
  7  8  2  0
  7  9  1  0
  9 10  1  0
  9 11  1  0
 11 12  1  1
 12 13  2  0
 13 14  1  0
 14 15  2  0
 15 16  1  0
 16 17  2  0
 11  5  1  0
 17 12  1  0
M  END
>  <HIPPO Pose ID>  (261) 
110361

>  <fragmenstein_outcome>  (261) 
acceptable

>  <energy_score>  (261) 
-9.234346

>  <distance_score>  (261) 
0.940566

>  <fragmenstein_mode>  (261) 
expansion

>  <HIPPO Compound ID>  (261) 
38732

>  <name>  (261) 
FABAOINPDGLEMA-KCJUWKMLSA-N

>  <ref_pdb>  (261) 
z0215a

>  <ref_mols>  (261) 
z0215a,z1018a

>  <csv_name>  (261) 
RdRp_knitwork_green_site_rna_tunnel_pure_split4000_batch005.csv

>  <fragmenstein_runtime>  (261) 
2.146545

>  <tags>  (261) 
['Fragmenstein placed']

>  <original ID>  (261) 
FABAOINPDGLEMA-KCJUWKMLSA-N

>  <fragmenstein_error>  (261) 
None

>  <original SMILES>  (261) 
COC(=O)[C@@H]1CC(=O)N(C)[C@@H]1c1ccccn1

>  <inchikey>  (261) 
FABAOINPDGLEMA-KCJUWKMLSA-N

>  <SLURM_JOB_NAME>  (261) 
BulkDock.place:Flavi_NS5_RdRp:RdRp_knitwork_green_site_rna_tunnel_pure_split4000_batch005

>  <scratch_subdir>  (261) 
/opt/xchem-fragalysis-2/maxwin/BulkDock/SCRATCH/217076/C38732-P104

>  <alias>  (261) 
None

>  <SLURM_JOB_ID>  (261) 
217076

>  <exports>  (261) 
['/opt/xchem-fragalysis-2/maxwin/BulkDock/OUTPUTS/RdRp_knitwork_green_site_rna_tunnel_pure_split4000_batch005_217076.sdf']

$$$$
110368
     RDKit          3D

 17 18  0  0  0  0  0  0  0  0999 V2000
  -24.8580  -32.3426  -19.9573 C   0  0  0  0  0  0  0  0  0  0  0  0
  -26.1731  -31.7744  -19.8904 O   0  0  0  0  0  0  0  0  0  0  0  0
  -26.5518  -31.0803  -20.9826 C   0  0  0  0  0  0  0  0  0  0  0  0
  -25.8733  -30.9672  -21.9975 O   0  0  0  0  0  0  0  0  0  0  0  0
  -27.9472  -30.5389  -20.8852 C   0  0  2  0  0  0  0  0  0  0  0  0
  -28.2289  -29.3174  -21.7538 C   0  0  0  0  0  0  0  0  0  0  0  0
  -29.6548  -29.0527  -21.3979 C   0  0  0  0  0  0  0  0  0  0  0  0
  -30.5061  -28.6087  -22.1476 O   0  0  0  0  0  0  0  0  0  0  0  0
  -29.8307  -29.4541  -20.0824 N   0  0  0  0  0  0  0  0  0  0  0  0
  -31.1600  -29.7925  -19.6472 C   0  0  0  0  0  0  0  0  0  0  0  0
  -28.7031  -30.2436  -19.5927 C   0  0  2  0  0  0  0  0  0  0  0  0
  -28.1607  -29.8461  -18.2360 C   0  0  0  0  0  0  0  0  0  0  0  0
  -26.8116  -29.7733  -17.9131 C   0  0  0  0  0  0  0  0  0  0  0  0
  -26.4152  -29.7380  -16.5794 C   0  0  0  0  0  0  0  0  0  0  0  0
  -27.3760  -29.7792  -15.5885 C   0  0  0  0  0  0  0  0  0  0  0  0
  -28.6989  -29.7981  -15.9661 C   0  0  0  0  0  0  0  0  0  0  0  0
  -29.1023  -29.8265  -17.2492 N   0  0  0  0  0  0  0  0  0  0  0  0
  1  2  1  0
  2  3  1  0
  3  4  2  0
  5  3  1  1
  5  6  1  0
  6  7  1  0
  7  8  2  0
  7  9  1  0
  9 10  1  0
  9 11  1  0
 11 12  1  1
 12 13  2  0
 13 14  1  0
 14 15  2  0
 15 16  1  0
 16 17  2  0
 11  5  1  0
 17 12  1  0
M  END
>  <HIPPO Pose ID>  (262) 
110368

>  <fragmenstein_outcome>  (262) 
acceptable

>  <energy_score>  (262) 
-11.260286

>  <distance_score>  (262) 
0.92547

>  <fragmenstein_mode>  (262) 
expansion

>  <HIPPO Compound ID>  (262) 
38732

>  <name>  (262) 
FABAOINPDGLEMA-KCJUWKMLSA-N

>  <ref_pdb>  (262) 
z1018a

>  <ref_mols>  (262) 
z0215a,z1018a

>  <csv_name>  (262) 
RdRp_knitwork_green_site_rna_tunnel_pure_split4000_batch005.csv

>  <fragmenstein_runtime>  (262) 
1.991763

>  <tags>  (262) 
['Fragmenstein placed']

>  <original ID>  (262) 
FABAOINPDGLEMA-KCJUWKMLSA-N

>  <fragmenstein_error>  (262) 
None

>  <original SMILES>  (262) 
COC(=O)[C@@H]1CC(=O)N(C)[C@@H]1c1ccccn1

>  <inchikey>  (262) 
FABAOINPDGLEMA-KCJUWKMLSA-N

>  <SLURM_JOB_NAME>  (262) 
BulkDock.place:Flavi_NS5_RdRp:RdRp_knitwork_green_site_rna_tunnel_pure_split4000_batch005

>  <scratch_subdir>  (262) 
/opt/xchem-fragalysis-2/maxwin/BulkDock/SCRATCH/217076/C38732-P206

>  <alias>  (262) 
None

>  <SLURM_JOB_ID>  (262) 
217076

>  <exports>  (262) 
['/opt/xchem-fragalysis-2/maxwin/BulkDock/OUTPUTS/RdRp_knitwork_green_site_rna_tunnel_pure_split4000_batch005_217076.sdf']

$$$$
110757
     RDKit          3D

 22 24  0  0  0  0  0  0  0  0999 V2000
  -25.5592  -31.9612  -24.2390 C   0  0  0  0  0  0  0  0  0  0  0  0
  -26.3183  -31.5961  -22.9697 C   0  0  0  0  0  0  0  0  0  0  0  0
  -25.6952  -32.2063  -21.7169 C   0  0  0  0  0  0  0  0  0  0  0  0
  -24.4366  -31.4613  -21.2980 C   0  0  0  0  0  0  0  0  0  0  0  0
  -23.6051  -32.1986  -20.2649 C   0  0  0  0  0  0  0  0  0  0  0  0
  -24.0965  -32.0412  -18.9410 N   0  0  0  0  0  0  0  0  0  0  0  0
  -23.3844  -32.2331  -17.5679 C   0  0  0  0  0  0  0  0  0  0  0  0
  -22.3093  -32.6240  -17.3191 O   0  0  0  0  0  0  0  0  0  0  0  0
  -24.3639  -31.8094  -16.4888 C   0  0  0  0  0  0  0  0  0  0  0  0
  -24.8810  -30.3879  -16.6913 C   0  0  0  0  0  0  0  0  0  0  0  0
  -26.3251  -30.3954  -17.1251 C   0  0  0  0  0  0  0  0  0  0  0  0
  -27.3191  -30.5359  -16.1656 C   0  0  0  0  0  0  0  0  0  0  0  0
  -28.6406  -30.5109  -16.5727 C   0  0  0  0  0  0  0  0  0  0  0  0
  -28.9355  -30.3545  -17.9263 C   0  0  0  0  0  0  0  0  0  0  0  0
  -30.2608  -30.3007  -18.3612 C   0  0  0  0  0  0  0  0  0  0  0  0
  -30.5670  -30.1634  -19.7115 C   0  0  0  0  0  0  0  0  0  0  0  0
  -29.5367  -30.0270  -20.6264 C   0  0  0  0  0  0  0  0  0  0  0  0
  -28.2124  -30.0617  -20.1825 C   0  0  0  0  0  0  0  0  0  0  0  0
  -27.8784  -30.2425  -18.8445 C   0  0  0  0  0  0  0  0  0  0  0  0
  -26.5866  -30.2888  -18.4525 N   0  0  0  0  0  0  0  0  0  0  0  0
  -22.9111  -33.4798  -20.6673 C   0  0  0  0  0  0  0  0  0  0  0  0
  -22.1100  -32.2234  -20.5111 C   0  0  0  0  0  0  0  0  0  0  0  0
  1  2  1  0
  2  3  1  0
  3  4  1  0
  4  5  1  0
  5  6  1  0
  6  7  1  0
  7  8  2  0
  7  9  1  0
  9 10  1  0
 10 11  1  0
 11 12  2  0
 12 13  1  0
 13 14  2  0
 14 15  1  0
 15 16  2  0
 16 17  1  0
 17 18  2  0
 18 19  1  0
 19 20  2  0
  5 21  1  0
 21 22  1  0
 22  5  1  0
 20 11  1  0
 19 14  1  0
M  END
>  <HIPPO Pose ID>  (263) 
110757

>  <fragmenstein_outcome>  (263) 
acceptable

>  <energy_score>  (263) 
-24.377712

>  <distance_score>  (263) 
0.817347

>  <fragmenstein_mode>  (263) 
expansion

>  <HIPPO Compound ID>  (263) 
44602

>  <name>  (263) 
XRCMQAZNOBVZTR-UHFFFAOYSA-N

>  <ref_pdb>  (263) 
z1040a

>  <ref_mols>  (263) 
z0384a,z1040a

>  <csv_name>  (263) 
RdRp_knitwork_green_site_rna_tunnel_pure_split4000_batch016.csv

>  <fragmenstein_runtime>  (263) 
5.840208

>  <tags>  (263) 
['Fragmenstein placed']

>  <original ID>  (263) 
XRCMQAZNOBVZTR-UHFFFAOYSA-N

>  <fragmenstein_error>  (263) 
None

>  <original SMILES>  (263) 
CCCCC1(NC(=O)CCc2ccc3ccccc3n2)CC1

>  <inchikey>  (263) 
XRCMQAZNOBVZTR-UHFFFAOYSA-N

>  <SLURM_JOB_NAME>  (263) 
BulkDock.place:Flavi_NS5_RdRp:RdRp_knitwork_green_site_rna_tunnel_pure_split4000_batch016

>  <scratch_subdir>  (263) 
/opt/xchem-fragalysis-2/maxwin/BulkDock/SCRATCH/217087/C44602-P208

>  <alias>  (263) 
None

>  <SLURM_JOB_ID>  (263) 
217087

>  <exports>  (263) 
['/opt/xchem-fragalysis-2/maxwin/BulkDock/OUTPUTS/RdRp_knitwork_green_site_rna_tunnel_pure_split4000_batch016_217087.sdf']

$$$$
110838
     RDKit          3D

 23 25  0  0  0  0  0  0  0  0999 V2000
  -24.5862  -33.2485  -16.7314 O   0  0  0  0  0  0  0  0  0  0  0  0
  -24.0959  -32.2491  -17.0770 C   0  0  0  0  0  0  0  0  0  0  0  0
  -23.9711  -31.0317  -16.1869 C   0  0  0  0  0  0  0  0  0  0  0  0
  -24.8160  -29.8622  -16.7178 C   0  0  0  0  0  0  0  0  0  0  0  0
  -26.2303  -30.1836  -17.1409 C   0  0  0  0  0  0  0  0  0  0  0  0
  -27.0985  -30.8181  -16.2654 C   0  0  0  0  0  0  0  0  0  0  0  0
  -28.3871  -31.0961  -16.6958 C   0  0  0  0  0  0  0  0  0  0  0  0
  -28.7882  -30.7151  -17.9780 C   0  0  0  0  0  0  0  0  0  0  0  0
  -30.0765  -30.9988  -18.4428 C   0  0  0  0  0  0  0  0  0  0  0  0
  -30.4910  -30.5780  -19.7041 C   0  0  0  0  0  0  0  0  0  0  0  0
  -29.6050  -29.8926  -20.5172 C   0  0  0  0  0  0  0  0  0  0  0  0
  -28.3150  -29.6298  -20.0517 C   0  0  0  0  0  0  0  0  0  0  0  0
  -27.8708  -30.0399  -18.7963 C   0  0  0  0  0  0  0  0  0  0  0  0
  -26.6071  -29.7923  -18.3880 N   0  0  0  0  0  0  0  0  0  0  0  0
  -23.5582  -31.8248  -18.4581 N   0  0  0  0  0  0  0  0  0  0  0  0
  -23.5947  -32.4594  -19.6409 C   0  0  0  0  0  0  0  0  0  0  0  0
  -24.1583  -33.6944  -19.9958 C   0  0  0  0  0  0  0  0  0  0  0  0
  -24.3744  -33.7157  -21.3199 N   0  0  0  0  0  0  0  0  0  0  0  0
  -23.9800  -32.4587  -21.6625 N   0  0  0  0  0  0  0  0  0  0  0  0
  -24.7534  -31.7015  -22.6203 C   0  0  0  0  0  0  0  0  0  0  0  0
  -25.9409  -31.0637  -21.9429 C   0  0  0  0  0  0  0  0  0  0  0  0
  -26.6499  -30.3464  -22.8544 F   0  0  0  0  0  0  0  0  0  0  0  0
  -23.2947  -31.7714  -20.7343 N   0  0  0  0  0  0  0  0  0  0  0  0
  1  2  2  0
  2  3  1  0
  3  4  1  0
  4  5  1  0
  5  6  2  0
  6  7  1  0
  7  8  2  0
  8  9  1  0
  9 10  2  0
 10 11  1  0
 11 12  2  0
 12 13  1  0
 13 14  2  0
  2 15  1  0
 15 16  1  0
 16 17  1  0
 17 18  2  0
 18 19  1  0
 19 20  1  0
 20 21  1  0
 21 22  1  0
 19 23  1  0
 14  5  1  0
 23 16  2  0
 13  8  1  0
M  END
>  <HIPPO Pose ID>  (264) 
110838

>  <fragmenstein_outcome>  (264) 
acceptable

>  <energy_score>  (264) 
-2.093818

>  <distance_score>  (264) 
0.99173

>  <fragmenstein_mode>  (264) 
expansion

>  <HIPPO Compound ID>  (264) 
44802

>  <name>  (264) 
PJMQUWUNGQGDLE-UHFFFAOYSA-N

>  <ref_pdb>  (264) 
z0384a

>  <ref_mols>  (264) 
z0384a,z1040a

>  <csv_name>  (264) 
RdRp_knitwork_green_site_rna_tunnel_pure_split4000_batch016.csv

>  <fragmenstein_runtime>  (264) 
2.305477

>  <tags>  (264) 
['Fragmenstein placed']

>  <original ID>  (264) 
PJMQUWUNGQGDLE-UHFFFAOYSA-N

>  <fragmenstein_error>  (264) 
None

>  <original SMILES>  (264) 
O=C(CCc1ccc2ccccc2n1)Nc1cnn(CCF)n1

>  <inchikey>  (264) 
PJMQUWUNGQGDLE-UHFFFAOYSA-N

>  <SLURM_JOB_NAME>  (264) 
BulkDock.place:Flavi_NS5_RdRp:RdRp_knitwork_green_site_rna_tunnel_pure_split4000_batch016

>  <scratch_subdir>  (264) 
/opt/xchem-fragalysis-2/maxwin/BulkDock/SCRATCH/217087/C44802-P120

>  <alias>  (264) 
None

>  <SLURM_JOB_ID>  (264) 
217087

>  <exports>  (264) 
['/opt/xchem-fragalysis-2/maxwin/BulkDock/OUTPUTS/RdRp_knitwork_green_site_rna_tunnel_pure_split4000_batch016_217087.sdf']

$$$$
111041
     RDKit          3D

 19 20  0  0  0  0  0  0  0  0999 V2000
  -28.7409  -29.7547  -21.7148 C   0  0  0  0  0  0  0  0  0  0  0  0
  -27.6054  -29.8854  -20.7131 C   0  0  2  0  0  0  0  0  0  0  0  0
  -26.7422  -30.9916  -21.1123 N   0  0  0  0  0  0  0  0  0  0  0  0
  -25.4508  -31.5461  -20.4594 C   0  0  0  0  0  0  0  0  0  0  0  0
  -24.9232  -31.2536  -19.4621 O   0  0  0  0  0  0  0  0  0  0  0  0
  -24.8335  -32.5525  -21.4130 C   0  0  0  0  0  0  0  0  0  0  0  0
  -23.6592  -31.8529  -22.0844 C   0  0  0  0  0  0  0  0  0  0  0  0
  -22.9517  -32.6795  -23.0428 N   0  0  0  0  0  0  0  0  0  0  0  0
  -21.5108  -32.7656  -23.0441 C   0  0  0  0  0  0  0  0  0  0  0  0
  -21.1634  -33.0184  -24.4966 C   0  0  0  0  0  0  0  0  0  0  0  0
  -22.3952  -33.7082  -25.0637 C   0  0  0  0  0  0  0  0  0  0  0  0
  -23.5051  -33.1161  -24.2352 C   0  0  0  0  0  0  0  0  0  0  0  0
  -24.6816  -33.0619  -24.5558 O   0  0  0  0  0  0  0  0  0  0  0  0
  -28.0516  -29.9169  -19.2548 C   0  0  0  0  0  0  0  0  0  0  0  0
  -29.3649  -30.1481  -18.8542 C   0  0  0  0  0  0  0  0  0  0  0  0
  -29.6744  -30.1678  -17.4926 C   0  0  0  0  0  0  0  0  0  0  0  0
  -28.6763  -29.9661  -16.5537 C   0  0  0  0  0  0  0  0  0  0  0  0
  -27.4023  -29.7310  -17.0203 C   0  0  0  0  0  0  0  0  0  0  0  0
  -27.0913  -29.6736  -18.3305 N   0  0  0  0  0  0  0  0  0  0  0  0
  2  1  1  6
  2  3  1  0
  3  4  1  0
  4  5  2  0
  4  6  1  0
  6  7  1  0
  7  8  1  0
  8  9  1  0
  9 10  1  0
 10 11  1  0
 11 12  1  0
 12 13  2  0
  2 14  1  0
 14 15  2  0
 15 16  1  0
 16 17  2  0
 17 18  1  0
 18 19  2  0
 12  8  1  0
 19 14  1  0
M  END
>  <HIPPO Pose ID>  (265) 
111041

>  <fragmenstein_outcome>  (265) 
acceptable

>  <energy_score>  (265) 
-1.380203

>  <distance_score>  (265) 
0.592635

>  <fragmenstein_mode>  (265) 
expansion

>  <HIPPO Compound ID>  (265) 
40797

>  <name>  (265) 
FOFIBXNPNXTDPY-NSHDSACASA-N

>  <ref_pdb>  (265) 
z0215a

>  <ref_mols>  (265) 
z0215a,z1018a

>  <csv_name>  (265) 
RdRp_knitwork_green_site_rna_tunnel_pure_split4000_batch005.csv

>  <fragmenstein_runtime>  (265) 
2.434425

>  <tags>  (265) 
['Fragmenstein placed']

>  <original ID>  (265) 
FOFIBXNPNXTDPY-NSHDSACASA-N

>  <fragmenstein_error>  (265) 
None

>  <original SMILES>  (265) 
C[C@H](NC(=O)CCN1CCCC1=O)c1ccccn1

>  <inchikey>  (265) 
FOFIBXNPNXTDPY-NSHDSACASA-N

>  <SLURM_JOB_NAME>  (265) 
BulkDock.place:Flavi_NS5_RdRp:RdRp_knitwork_green_site_rna_tunnel_pure_split4000_batch005

>  <scratch_subdir>  (265) 
/opt/xchem-fragalysis-2/maxwin/BulkDock/SCRATCH/217076/C40797-P104

>  <alias>  (265) 
None

>  <SLURM_JOB_ID>  (265) 
217076

>  <exports>  (265) 
['/opt/xchem-fragalysis-2/maxwin/BulkDock/OUTPUTS/RdRp_knitwork_green_site_rna_tunnel_pure_split4000_batch005_217076.sdf']

$$$$
111223
     RDKit          3D

 22 23  0  0  0  0  0  0  0  0999 V2000
  -28.5598  -32.7896  -16.0712 C   0  0  0  0  0  0  0  0  0  0  0  0
  -29.0492  -31.3293  -16.0224 C   0  0  0  0  0  0  0  0  0  0  0  0
  -30.4934  -31.3094  -15.4988 C   0  0  0  0  0  0  0  0  0  0  0  0
  -28.1468  -30.5498  -15.0732 C   0  0  0  0  0  0  0  0  0  0  0  0
  -27.0568  -30.9214  -14.6570 O   0  0  0  0  0  0  0  0  0  0  0  0
  -28.5975  -29.3192  -14.7573 O   0  0  0  0  0  0  0  0  0  0  0  0
  -28.9154  -30.7463  -17.3605 N   0  0  0  0  0  0  0  0  0  0  0  0
  -27.7312  -30.4318  -17.9697 C   0  0  0  0  0  0  0  0  0  0  0  0
  -28.0296  -30.2125  -19.2860 C   0  0  0  0  0  0  0  0  0  0  0  0
  -27.0758  -30.1237  -20.2477 N   0  0  0  0  0  0  0  0  0  0  0  0
  -27.2059  -29.9289  -21.7746 C   0  0  0  0  0  0  0  0  0  0  0  0
  -28.1471  -29.7371  -22.4339 O   0  0  0  0  0  0  0  0  0  0  0  0
  -25.8281  -30.1405  -22.3650 C   0  0  0  0  0  0  0  0  0  0  0  0
  -25.5236  -31.6394  -22.4687 C   0  0  0  0  0  0  0  0  0  0  0  0
  -25.4457  -32.3700  -21.1502 C   0  0  0  0  0  0  0  0  0  0  0  0
  -25.9551  -33.6552  -21.0057 C   0  0  0  0  0  0  0  0  0  0  0  0
  -25.8558  -34.2806  -19.7652 C   0  0  0  0  0  0  0  0  0  0  0  0
  -25.2312  -33.6213  -18.7130 C   0  0  0  0  0  0  0  0  0  0  0  0
  -24.7370  -32.3524  -18.9429 C   0  0  0  0  0  0  0  0  0  0  0  0
  -24.8594  -31.7076  -20.1225 N   0  0  0  0  0  0  0  0  0  0  0  0
  -29.4263  -30.3026  -19.3680 C   0  0  0  0  0  0  0  0  0  0  0  0
  -29.9733  -30.6525  -18.1960 N   0  0  0  0  0  0  0  0  0  0  0  0
  1  2  1  0
  2  3  1  0
  2  4  1  0
  4  5  2  0
  4  6  1  0
  2  7  1  0
  7  8  1  0
  8  9  2  0
  9 10  1  0
 10 11  1  0
 11 12  2  0
 11 13  1  0
 13 14  1  0
 14 15  1  0
 15 16  2  0
 16 17  1  0
 17 18  2  0
 18 19  1  0
 19 20  2  0
  9 21  1  0
 21 22  2  0
 22  7  1  0
 20 15  1  0
M  END
>  <HIPPO Pose ID>  (266) 
111223

>  <fragmenstein_outcome>  (266) 
acceptable

>  <energy_score>  (266) 
-53.919179

>  <distance_score>  (266) 
0.832997

>  <fragmenstein_mode>  (266) 
expansion

>  <HIPPO Compound ID>  (266) 
12690

>  <name>  (266) 
CJNBNTYLNLSYBI-UHFFFAOYSA-N

>  <ref_pdb>  (266) 
z0653a

>  <ref_mols>  (266) 
d0472b,z0653a

>  <csv_name>  (266) 
RdRp_knitwork_green_site_rna_tunnel_pure_split4000_batch003.csv

>  <fragmenstein_runtime>  (266) 
6.36594

>  <tags>  (266) 
['Fragmenstein placed']

>  <original ID>  (266) 
CJNBNTYLNLSYBI-UHFFFAOYSA-N

>  <fragmenstein_error>  (266) 
None

>  <original SMILES>  (266) 
CC(C)(C(=O)O)n1cc(NC(=O)CCc2ccccn2)cn1

>  <inchikey>  (266) 
CJNBNTYLNLSYBI-UHFFFAOYSA-N

>  <SLURM_JOB_NAME>  (266) 
BulkDock.place:Flavi_NS5_RdRp:RdRp_knitwork_green_site_rna_tunnel_pure_split4000_batch003

>  <scratch_subdir>  (266) 
/opt/xchem-fragalysis-2/maxwin/BulkDock/SCRATCH/217074/C12690-P153

>  <alias>  (266) 
None

>  <SLURM_JOB_ID>  (266) 
217074

>  <exports>  (266) 
['/opt/xchem-fragalysis-2/maxwin/BulkDock/OUTPUTS/RdRp_knitwork_green_site_rna_tunnel_pure_split4000_batch003_217074.sdf']

$$$$
111231
     RDKit          3D

 22 24  0  0  0  0  0  0  0  0999 V2000
  -29.0799  -30.1531  -22.3289 O   0  0  0  0  0  0  0  0  0  0  0  0
  -28.8003  -30.1774  -21.2017 C   0  0  0  0  0  0  0  0  0  0  0  0
  -29.5215  -29.3274  -20.1357 C   0  0  0  0  0  0  0  0  0  0  0  0
  -29.0001  -29.3968  -18.7312 N   0  0  0  0  0  0  0  0  0  0  0  0
  -29.7613  -30.2530  -17.8231 C   0  0  0  0  0  0  0  0  0  0  0  0
  -29.5887  -29.8558  -16.3696 C   0  0  0  0  0  0  0  0  0  0  0  0
  -28.1247  -29.8910  -15.9914 C   0  0  0  0  0  0  0  0  0  0  0  0
  -27.2959  -29.1325  -16.9968 C   0  0  0  0  0  0  0  0  0  0  0  0
  -25.9862  -28.7713  -16.6347 C   0  0  0  0  0  0  0  0  0  0  0  0
  -25.1709  -28.1013  -17.5387 C   0  0  0  0  0  0  0  0  0  0  0  0
  -25.6616  -27.7775  -18.7910 C   0  0  0  0  0  0  0  0  0  0  0  0
  -24.8639  -27.1592  -19.6746 F   0  0  0  0  0  0  0  0  0  0  0  0
  -26.9550  -28.1271  -19.1628 C   0  0  0  0  0  0  0  0  0  0  0  0
  -27.7864  -28.8588  -18.2984 C   0  0  0  0  0  0  0  0  0  0  0  0
  -27.6692  -30.8992  -20.4793 N   0  0  0  0  0  0  0  0  0  0  0  0
  -26.5935  -31.6614  -20.9870 C   0  0  0  0  0  0  0  0  0  0  0  0
  -25.7555  -32.1271  -19.8214 C   0  0  0  0  0  0  0  0  0  0  0  0
  -24.9909  -33.2987  -19.8871 C   0  0  0  0  0  0  0  0  0  0  0  0
  -24.6441  -33.9436  -18.7211 C   0  0  0  0  0  0  0  0  0  0  0  0
  -25.0475  -33.3571  -17.5313 C   0  0  0  0  0  0  0  0  0  0  0  0
  -25.6253  -32.1093  -17.5237 C   0  0  0  0  0  0  0  0  0  0  0  0
  -25.9608  -31.4697  -18.6519 N   0  0  0  0  0  0  0  0  0  0  0  0
  1  2  2  0
  2  3  1  0
  3  4  1  0
  4  5  1  0
  5  6  1  0
  6  7  1  0
  7  8  1  0
  8  9  2  0
  9 10  1  0
 10 11  2  0
 11 12  1  0
 11 13  1  0
 13 14  2  0
  2 15  1  0
 15 16  1  0
 16 17  1  0
 17 18  2  0
 18 19  1  0
 19 20  2  0
 20 21  1  0
 21 22  2  0
 14  4  1  0
 22 17  1  0
 14  8  1  0
M  END
>  <HIPPO Pose ID>  (267) 
111231

>  <fragmenstein_outcome>  (267) 
acceptable

>  <energy_score>  (267) 
-0.271984

>  <distance_score>  (267) 
0.923321

>  <fragmenstein_mode>  (267) 
expansion

>  <HIPPO Compound ID>  (267) 
26973

>  <name>  (267) 
RKWBDSUJCUOXLF-UHFFFAOYSA-N

>  <ref_pdb>  (267) 
z0165a

>  <ref_mols>  (267) 
z0165a,d0472b

>  <csv_name>  (267) 
RdRp_knitwork_green_site_rna_tunnel_pure_split4000_batch012.csv

>  <fragmenstein_runtime>  (267) 
5.623529

>  <tags>  (267) 
['Fragmenstein placed']

>  <original ID>  (267) 
RKWBDSUJCUOXLF-UHFFFAOYSA-N

>  <fragmenstein_error>  (267) 
None

>  <original SMILES>  (267) 
O=C(CN1CCCc2ccc(F)cc21)NCc1ccccn1

>  <inchikey>  (267) 
RKWBDSUJCUOXLF-UHFFFAOYSA-N

>  <SLURM_JOB_NAME>  (267) 
BulkDock.place:Flavi_NS5_RdRp:RdRp_knitwork_green_site_rna_tunnel_pure_split4000_batch012

>  <scratch_subdir>  (267) 
/opt/xchem-fragalysis-2/maxwin/BulkDock/SCRATCH/217083/C26973-P3

>  <alias>  (267) 
None

>  <SLURM_JOB_ID>  (267) 
217083

>  <exports>  (267) 
['/opt/xchem-fragalysis-2/maxwin/BulkDock/OUTPUTS/RdRp_knitwork_green_site_rna_tunnel_pure_split4000_batch012_217083.sdf']

$$$$
111510
     RDKit          3D

 19 21  0  0  0  0  0  0  0  0999 V2000
  -27.6737  -29.8372  -19.8692 C   0  0  0  0  0  0  0  0  0  0  0  0
  -26.4564  -29.7874  -20.6710 N   0  0  0  0  0  0  0  0  0  0  0  0
  -25.7336  -31.0725  -20.6385 C   0  0  0  0  0  0  0  0  0  0  0  0
  -24.4432  -31.0191  -21.4862 C   0  0  0  0  0  0  0  0  0  0  0  0
  -24.3849  -31.9643  -22.6472 C   0  0  0  0  0  0  0  0  0  0  0  0
  -24.8046  -31.6956  -23.9392 C   0  0  0  0  0  0  0  0  0  0  0  0
  -24.6667  -32.8500  -24.6526 N   0  0  0  0  0  0  0  0  0  0  0  0
  -25.0041  -33.1047  -26.0337 C   0  0  0  0  0  0  0  0  0  0  0  0
  -24.1316  -33.8392  -23.9355 N   0  0  0  0  0  0  0  0  0  0  0  0
  -23.8470  -33.2773  -22.7575 C   0  0  0  0  0  0  0  0  0  0  0  0
  -23.0001  -33.9978  -21.8208 C   0  0  0  0  0  0  0  0  0  0  0  0
  -23.1203  -35.3231  -21.4672 C   0  0  0  0  0  0  0  0  0  0  0  0
  -22.0625  -35.7111  -20.7109 O   0  0  0  0  0  0  0  0  0  0  0  0
  -21.2342  -34.6373  -20.6077 C   0  0  0  0  0  0  0  0  0  0  0  0
  -20.0060  -34.6365  -19.9499 C   0  0  0  0  0  0  0  0  0  0  0  0
  -19.2797  -33.4416  -19.9804 C   0  0  0  0  0  0  0  0  0  0  0  0
  -19.7719  -32.3149  -20.6433 C   0  0  0  0  0  0  0  0  0  0  0  0
  -21.0099  -32.3492  -21.3012 C   0  0  0  0  0  0  0  0  0  0  0  0
  -21.7691  -33.5374  -21.2731 C   0  0  0  0  0  0  0  0  0  0  0  0
  1  2  1  0
  2  3  1  0
  3  4  1  0
  4  5  1  0
  5  6  2  0
  6  7  1  0
  7  8  1  0
  7  9  1  0
  9 10  2  0
 10 11  1  0
 11 12  2  0
 12 13  1  0
 13 14  1  0
 14 15  2  0
 15 16  1  0
 16 17  2  0
 17 18  1  0
 18 19  2  0
 10  5  1  0
 19 11  1  0
 19 14  1  0
M  END
>  <HIPPO Pose ID>  (268) 
111510

>  <fragmenstein_outcome>  (268) 
acceptable

>  <energy_score>  (268) 
-18.790758

>  <distance_score>  (268) 
0.928099

>  <fragmenstein_mode>  (268) 
expansion

>  <HIPPO Compound ID>  (268) 
26884

>  <name>  (268) 
DCEOREOQSSPGRL-UHFFFAOYSA-N

>  <ref_pdb>  (268) 
3vws-b

>  <ref_mols>  (268) 
z0628a,3vws-b

>  <csv_name>  (268) 
RdRp_knitwork_green_site_rna_tunnel_pure_split4000_batch000.csv

>  <fragmenstein_runtime>  (268) 
3.429393

>  <tags>  (268) 
['Fragmenstein placed']

>  <original ID>  (268) 
DCEOREOQSSPGRL-UHFFFAOYSA-N

>  <fragmenstein_error>  (268) 
None

>  <original SMILES>  (268) 
CNCCc1cn(C)nc1-c1coc2ccccc12

>  <inchikey>  (268) 
DCEOREOQSSPGRL-UHFFFAOYSA-N

>  <SLURM_JOB_NAME>  (268) 
BulkDock.place:Flavi_NS5_RdRp:RdRp_knitwork_green_site_rna_tunnel_pure_split4000_batch000

>  <scratch_subdir>  (268) 
/opt/xchem-fragalysis-2/maxwin/BulkDock/SCRATCH/217071/C26884-P217

>  <alias>  (268) 
None

>  <SLURM_JOB_ID>  (268) 
217071

>  <exports>  (268) 
['/opt/xchem-fragalysis-2/maxwin/BulkDock/OUTPUTS/RdRp_knitwork_green_site_rna_tunnel_pure_split4000_batch000_217071.sdf']

$$$$
111625
     RDKit          3D

 23 25  0  0  0  0  0  0  0  0999 V2000
  -25.8395  -30.6789  -23.8469 C   0  0  0  0  0  0  0  0  0  0  0  0
  -25.4664  -30.3379  -22.5323 O   0  0  0  0  0  0  0  0  0  0  0  0
  -25.6128  -31.3504  -21.5486 C   0  0  0  0  0  0  0  0  0  0  0  0
  -24.3766  -32.2499  -21.4856 C   0  0  1  0  0  0  0  0  0  0  0  0
  -23.1783  -31.4643  -21.4197 O   0  0  0  0  0  0  0  0  0  0  0  0
  -24.3896  -33.1448  -20.2442 C   0  0  0  0  0  0  0  0  0  0  0  0
  -24.0874  -32.4236  -19.0487 N   0  0  0  0  0  0  0  0  0  0  0  0
  -24.5935  -32.6254  -17.5926 C   0  0  0  0  0  0  0  0  0  0  0  0
  -25.2742  -33.4595  -17.1357 O   0  0  0  0  0  0  0  0  0  0  0  0
  -24.0786  -31.4491  -16.7705 C   0  0  0  0  0  0  0  0  0  0  0  0
  -24.6844  -30.1083  -17.1860 C   0  0  0  0  0  0  0  0  0  0  0  0
  -26.1734  -30.1353  -17.4011 C   0  0  0  0  0  0  0  0  0  0  0  0
  -27.0402  -30.4900  -16.3798 C   0  0  0  0  0  0  0  0  0  0  0  0
  -28.3879  -30.6135  -16.6790 C   0  0  0  0  0  0  0  0  0  0  0  0
  -28.8302  -30.3819  -17.9856 C   0  0  0  0  0  0  0  0  0  0  0  0
  -30.1670  -30.5622  -18.3400 C   0  0  0  0  0  0  0  0  0  0  0  0
  -30.6000  -30.3422  -19.6481 C   0  0  0  0  0  0  0  0  0  0  0  0
  -29.6940  -29.9162  -20.6054 C   0  0  0  0  0  0  0  0  0  0  0  0
  -28.3603  -29.7332  -20.2453 C   0  0  0  0  0  0  0  0  0  0  0  0
  -27.9022  -29.9766  -18.9522 C   0  0  0  0  0  0  0  0  0  0  0  0
  -26.6001  -29.8433  -18.6536 N   0  0  0  0  0  0  0  0  0  0  0  0
  -25.3044  -34.3481  -20.2481 C   0  0  0  0  0  0  0  0  0  0  0  0
  -23.8244  -34.5440  -20.3829 C   0  0  0  0  0  0  0  0  0  0  0  0
  1  2  1  0
  2  3  1  0
  3  4  1  0
  4  5  1  1
  4  6  1  0
  6  7  1  0
  7  8  1  0
  8  9  2  0
  8 10  1  0
 10 11  1  0
 11 12  1  0
 12 13  2  0
 13 14  1  0
 14 15  2  0
 15 16  1  0
 16 17  2  0
 17 18  1  0
 18 19  2  0
 19 20  1  0
 20 21  2  0
  6 22  1  0
 22 23  1  0
 23  6  1  0
 21 12  1  0
 20 15  1  0
M  END
>  <HIPPO Pose ID>  (269) 
111625

>  <fragmenstein_outcome>  (269) 
acceptable

>  <energy_score>  (269) 
-11.476918

>  <distance_score>  (269) 
0.907946

>  <fragmenstein_mode>  (269) 
expansion

>  <HIPPO Compound ID>  (269) 
46735

>  <name>  (269) 
RYXAUVAEQAUNQM-MRXNPFEDSA-N

>  <ref_pdb>  (269) 
z0384a

>  <ref_mols>  (269) 
z0384a,z1040a

>  <csv_name>  (269) 
RdRp_knitwork_green_site_rna_tunnel_pure_split4000_batch016.csv

>  <fragmenstein_runtime>  (269) 
2.512743

>  <tags>  (269) 
['Fragmenstein placed']

>  <original ID>  (269) 
RYXAUVAEQAUNQM-MRXNPFEDSA-N

>  <fragmenstein_error>  (269) 
None

>  <original SMILES>  (269) 
COC[C@@H](O)C1(NC(=O)CCc2ccc3ccccc3n2)CC1

>  <inchikey>  (269) 
RYXAUVAEQAUNQM-MRXNPFEDSA-N

>  <SLURM_JOB_NAME>  (269) 
BulkDock.place:Flavi_NS5_RdRp:RdRp_knitwork_green_site_rna_tunnel_pure_split4000_batch016

>  <scratch_subdir>  (269) 
/opt/xchem-fragalysis-2/maxwin/BulkDock/SCRATCH/217087/C46735-P120

>  <alias>  (269) 
None

>  <SLURM_JOB_ID>  (269) 
217087

>  <exports>  (269) 
['/opt/xchem-fragalysis-2/maxwin/BulkDock/OUTPUTS/RdRp_knitwork_green_site_rna_tunnel_pure_split4000_batch016_217087.sdf']

$$$$
111639
     RDKit          3D

 23 25  0  0  0  0  0  0  0  0999 V2000
  -25.7626  -30.9993  -23.9751 C   0  0  0  0  0  0  0  0  0  0  0  0
  -26.5705  -31.0839  -22.8101 O   0  0  0  0  0  0  0  0  0  0  0  0
  -26.1917  -32.1619  -21.9401 C   0  0  0  0  0  0  0  0  0  0  0  0
  -24.8273  -31.9540  -21.2696 C   0  0  1  0  0  0  0  0  0  0  0  0
  -24.8288  -30.6923  -20.5929 O   0  0  0  0  0  0  0  0  0  0  0  0
  -24.4096  -33.0480  -20.2675 C   0  0  0  0  0  0  0  0  0  0  0  0
  -24.1507  -32.5124  -18.9733 N   0  0  0  0  0  0  0  0  0  0  0  0
  -24.7559  -32.8788  -17.5907 C   0  0  0  0  0  0  0  0  0  0  0  0
  -25.5014  -33.7274  -17.2914 O   0  0  0  0  0  0  0  0  0  0  0  0
  -24.2721  -31.8155  -16.6130 C   0  0  0  0  0  0  0  0  0  0  0  0
  -24.8042  -30.4207  -16.9550 C   0  0  0  0  0  0  0  0  0  0  0  0
  -26.2781  -30.4011  -17.2694 C   0  0  0  0  0  0  0  0  0  0  0  0
  -27.2058  -30.5888  -16.2561 C   0  0  0  0  0  0  0  0  0  0  0  0
  -28.5516  -30.5640  -16.5824 C   0  0  0  0  0  0  0  0  0  0  0  0
  -28.9352  -30.3599  -17.9099 C   0  0  0  0  0  0  0  0  0  0  0  0
  -30.2827  -30.3367  -18.2723 C   0  0  0  0  0  0  0  0  0  0  0  0
  -30.6654  -30.1660  -19.6014 C   0  0  0  0  0  0  0  0  0  0  0  0
  -29.6947  -29.9564  -20.5660 C   0  0  0  0  0  0  0  0  0  0  0  0
  -28.3506  -29.9490  -20.1930 C   0  0  0  0  0  0  0  0  0  0  0  0
  -27.9416  -30.1761  -18.8824 C   0  0  0  0  0  0  0  0  0  0  0  0
  -26.6307  -30.2117  -18.5689 N   0  0  0  0  0  0  0  0  0  0  0  0
  -24.8543  -34.4897  -20.4314 C   0  0  0  0  0  0  0  0  0  0  0  0
  -23.4523  -34.1110  -20.7807 C   0  0  0  0  0  0  0  0  0  0  0  0
  1  2  1  0
  2  3  1  0
  3  4  1  0
  4  5  1  1
  4  6  1  0
  6  7  1  0
  7  8  1  0
  8  9  2  0
  8 10  1  0
 10 11  1  0
 11 12  1  0
 12 13  2  0
 13 14  1  0
 14 15  2  0
 15 16  1  0
 16 17  2  0
 17 18  1  0
 18 19  2  0
 19 20  1  0
 20 21  2  0
  6 22  1  0
 22 23  1  0
 23  6  1  0
 21 12  1  0
 20 15  1  0
M  END
>  <HIPPO Pose ID>  (270) 
111639

>  <fragmenstein_outcome>  (270) 
acceptable

>  <energy_score>  (270) 
-12.95051

>  <distance_score>  (270) 
0.782269

>  <fragmenstein_mode>  (270) 
expansion

>  <HIPPO Compound ID>  (270) 
46735

>  <name>  (270) 
RYXAUVAEQAUNQM-MRXNPFEDSA-N

>  <ref_pdb>  (270) 
z1040a

>  <ref_mols>  (270) 
z0384a,z1040a

>  <csv_name>  (270) 
RdRp_knitwork_green_site_rna_tunnel_pure_split4000_batch016.csv

>  <fragmenstein_runtime>  (270) 
2.813801

>  <tags>  (270) 
['Fragmenstein placed']

>  <original ID>  (270) 
RYXAUVAEQAUNQM-MRXNPFEDSA-N

>  <fragmenstein_error>  (270) 
None

>  <original SMILES>  (270) 
COC[C@@H](O)C1(NC(=O)CCc2ccc3ccccc3n2)CC1

>  <inchikey>  (270) 
RYXAUVAEQAUNQM-MRXNPFEDSA-N

>  <SLURM_JOB_NAME>  (270) 
BulkDock.place:Flavi_NS5_RdRp:RdRp_knitwork_green_site_rna_tunnel_pure_split4000_batch016

>  <scratch_subdir>  (270) 
/opt/xchem-fragalysis-2/maxwin/BulkDock/SCRATCH/217087/C46735-P208

>  <alias>  (270) 
None

>  <SLURM_JOB_ID>  (270) 
217087

>  <exports>  (270) 
['/opt/xchem-fragalysis-2/maxwin/BulkDock/OUTPUTS/RdRp_knitwork_green_site_rna_tunnel_pure_split4000_batch016_217087.sdf']

$$$$
111792
     RDKit          3D

 23 25  0  0  0  0  0  0  0  0999 V2000
  -28.5780  -29.3608  -21.7623 O   0  0  0  0  0  0  0  0  0  0  0  0
  -27.5886  -29.6958  -21.2451 C   0  0  0  0  0  0  0  0  0  0  0  0
  -26.2655  -29.7344  -21.9899 C   0  0  0  0  0  0  0  0  0  0  0  0
  -26.0146  -31.0680  -22.6815 C   0  0  0  0  0  0  0  0  0  0  0  0
  -24.8581  -31.8706  -22.1035 C   0  0  0  0  0  0  0  0  0  0  0  0
  -25.2324  -32.4920  -20.7897 C   0  0  0  0  0  0  0  0  0  0  0  0
  -25.9488  -33.6824  -20.7385 C   0  0  0  0  0  0  0  0  0  0  0  0
  -26.2545  -34.2192  -19.4942 C   0  0  0  0  0  0  0  0  0  0  0  0
  -25.8026  -33.5822  -18.3465 C   0  0  0  0  0  0  0  0  0  0  0  0
  -25.1000  -32.4025  -18.4933 C   0  0  0  0  0  0  0  0  0  0  0  0
  -24.8631  -31.8146  -19.6799 N   0  0  0  0  0  0  0  0  0  0  0  0
  -27.3241  -30.1600  -19.7960 N   0  0  0  0  0  0  0  0  0  0  0  0
  -28.1868  -30.3854  -18.7701 C   0  0  0  0  0  0  0  0  0  0  0  0
  -29.5899  -30.3992  -18.7720 C   0  0  0  0  0  0  0  0  0  0  0  0
  -30.0976  -30.6519  -17.5623 N   0  0  0  0  0  0  0  0  0  0  0  0
  -29.0022  -30.8493  -16.7755 N   0  0  0  0  0  0  0  0  0  0  0  0
  -29.0826  -31.2642  -15.4043 C   0  0  0  0  0  0  0  0  0  0  0  0
  -30.2817  -31.2216  -14.7858 N   0  0  0  0  0  0  0  0  0  0  0  0
  -30.3273  -31.7107  -13.5348 C   0  0  0  0  0  0  0  0  0  0  0  0
  -29.2440  -32.2433  -12.8817 C   0  0  0  0  0  0  0  0  0  0  0  0
  -28.0666  -32.2332  -13.5866 C   0  0  0  0  0  0  0  0  0  0  0  0
  -27.9381  -31.7238  -14.8263 N   0  0  0  0  0  0  0  0  0  0  0  0
  -27.8318  -30.6568  -17.4795 C   0  0  0  0  0  0  0  0  0  0  0  0
  1  2  2  0
  2  3  1  0
  3  4  1  0
  4  5  1  0
  5  6  1  0
  6  7  2  0
  7  8  1  0
  8  9  2  0
  9 10  1  0
 10 11  2  0
  2 12  1  0
 12 13  1  0
 13 14  1  0
 14 15  2  0
 15 16  1  0
 16 17  1  0
 17 18  2  0
 18 19  1  0
 19 20  2  0
 20 21  1  0
 21 22  2  0
 16 23  1  0
 11  6  1  0
 23 13  2  0
 22 17  1  0
M  END
>  <HIPPO Pose ID>  (271) 
111792

>  <fragmenstein_outcome>  (271) 
acceptable

>  <energy_score>  (271) 
-46.434

>  <distance_score>  (271) 
0.973837

>  <fragmenstein_mode>  (271) 
expansion

>  <HIPPO Compound ID>  (271) 
20041

>  <name>  (271) 
DNRVEDCSVRBDFQ-UHFFFAOYSA-N

>  <ref_pdb>  (271) 
z0653a

>  <ref_mols>  (271) 
d0472b,z0653a

>  <csv_name>  (271) 
RdRp_knitwork_green_site_rna_tunnel_pure_split4000_batch003.csv

>  <fragmenstein_runtime>  (271) 
5.063576

>  <tags>  (271) 
['Fragmenstein placed']

>  <original ID>  (271) 
DNRVEDCSVRBDFQ-UHFFFAOYSA-N

>  <fragmenstein_error>  (271) 
None

>  <original SMILES>  (271) 
O=C(CCCc1ccccn1)Nc1cnn(-c2ncccn2)c1

>  <inchikey>  (271) 
DNRVEDCSVRBDFQ-UHFFFAOYSA-N

>  <SLURM_JOB_NAME>  (271) 
BulkDock.place:Flavi_NS5_RdRp:RdRp_knitwork_green_site_rna_tunnel_pure_split4000_batch003

>  <scratch_subdir>  (271) 
/opt/xchem-fragalysis-2/maxwin/BulkDock/SCRATCH/217074/C20041-P153

>  <alias>  (271) 
None

>  <SLURM_JOB_ID>  (271) 
217074

>  <exports>  (271) 
['/opt/xchem-fragalysis-2/maxwin/BulkDock/OUTPUTS/RdRp_knitwork_green_site_rna_tunnel_pure_split4000_batch003_217074.sdf']

$$$$
111958
     RDKit          3D

 19 20  0  0  0  0  0  0  0  0999 V2000
  -30.8847  -31.4145  -15.1445 C   0  0  0  0  0  0  0  0  0  0  0  0
  -29.4799  -30.9595  -15.5077 C   0  0  0  0  0  0  0  0  0  0  0  0
  -29.2519  -30.7417  -16.9228 N   0  0  0  0  0  0  0  0  0  0  0  0
  -28.0401  -30.4923  -17.5057 C   0  0  0  0  0  0  0  0  0  0  0  0
  -28.2972  -30.3471  -18.8439 C   0  0  0  0  0  0  0  0  0  0  0  0
  -27.3843  -30.1120  -19.8229 N   0  0  0  0  0  0  0  0  0  0  0  0
  -27.5800  -29.7083  -21.3005 C   0  0  0  0  0  0  0  0  0  0  0  0
  -28.5501  -29.4397  -21.8879 O   0  0  0  0  0  0  0  0  0  0  0  0
  -26.2237  -29.7274  -21.9762 C   0  0  0  0  0  0  0  0  0  0  0  0
  -25.9154  -31.0611  -22.6462 C   0  0  0  0  0  0  0  0  0  0  0  0
  -24.7580  -31.8194  -22.0093 C   0  0  0  0  0  0  0  0  0  0  0  0
  -25.1863  -32.4630  -20.7227 C   0  0  0  0  0  0  0  0  0  0  0  0
  -25.8205  -33.7017  -20.7309 C   0  0  0  0  0  0  0  0  0  0  0  0
  -26.2112  -34.2567  -19.5198 C   0  0  0  0  0  0  0  0  0  0  0  0
  -25.9287  -33.5832  -18.3406 C   0  0  0  0  0  0  0  0  0  0  0  0
  -25.2993  -32.3571  -18.4288 C   0  0  0  0  0  0  0  0  0  0  0  0
  -24.9689  -31.7595  -19.5883 N   0  0  0  0  0  0  0  0  0  0  0  0
  -29.6881  -30.5016  -18.9709 C   0  0  0  0  0  0  0  0  0  0  0  0
  -30.2710  -30.7641  -17.7990 N   0  0  0  0  0  0  0  0  0  0  0  0
  1  2  1  0
  2  3  1  0
  3  4  1  0
  4  5  2  0
  5  6  1  0
  6  7  1  0
  7  8  2  0
  7  9  1  0
  9 10  1  0
 10 11  1  0
 11 12  1  0
 12 13  2  0
 13 14  1  0
 14 15  2  0
 15 16  1  0
 16 17  2  0
  5 18  1  0
 18 19  2  0
 19  3  1  0
 17 12  1  0
M  END
>  <HIPPO Pose ID>  (272) 
111958

>  <fragmenstein_outcome>  (272) 
acceptable

>  <energy_score>  (272) 
-56.817298

>  <distance_score>  (272) 
0.977994

>  <fragmenstein_mode>  (272) 
expansion

>  <HIPPO Compound ID>  (272) 
20185

>  <name>  (272) 
FRCAWIUSQZXGRP-UHFFFAOYSA-N

>  <ref_pdb>  (272) 
z0653a

>  <ref_mols>  (272) 
d0472b,z0653a

>  <csv_name>  (272) 
RdRp_knitwork_green_site_rna_tunnel_pure_split4000_batch003.csv

>  <fragmenstein_runtime>  (272) 
3.678063

>  <tags>  (272) 
['Fragmenstein placed']

>  <original ID>  (272) 
FRCAWIUSQZXGRP-UHFFFAOYSA-N

>  <fragmenstein_error>  (272) 
None

>  <original SMILES>  (272) 
CCn1cc(NC(=O)CCCc2ccccn2)cn1

>  <inchikey>  (272) 
FRCAWIUSQZXGRP-UHFFFAOYSA-N

>  <SLURM_JOB_NAME>  (272) 
BulkDock.place:Flavi_NS5_RdRp:RdRp_knitwork_green_site_rna_tunnel_pure_split4000_batch003

>  <scratch_subdir>  (272) 
/opt/xchem-fragalysis-2/maxwin/BulkDock/SCRATCH/217074/C20185-P153

>  <alias>  (272) 
None

>  <SLURM_JOB_ID>  (272) 
217074

>  <exports>  (272) 
['/opt/xchem-fragalysis-2/maxwin/BulkDock/OUTPUTS/RdRp_knitwork_green_site_rna_tunnel_pure_split4000_batch003_217074.sdf']

$$$$
112011
     RDKit          3D

 22 24  0  0  0  0  0  0  0  0999 V2000
  -24.3023  -27.2906  -17.8979 C   0  0  0  0  0  0  0  0  0  0  0  0
  -25.5864  -27.9821  -18.0393 C   0  0  0  0  0  0  0  0  0  0  0  0
  -26.4501  -27.4583  -18.9814 C   0  0  0  0  0  0  0  0  0  0  0  0
  -27.7175  -27.9644  -19.0480 C   0  0  0  0  0  0  0  0  0  0  0  0
  -28.1375  -29.0028  -18.2037 C   0  0  0  0  0  0  0  0  0  0  0  0
  -27.2123  -29.5904  -17.3175 C   0  0  0  0  0  0  0  0  0  0  0  0
  -25.9298  -29.0699  -17.2343 C   0  0  0  0  0  0  0  0  0  0  0  0
  -27.6462  -30.6969  -16.4211 C   0  0  0  0  0  0  0  0  0  0  0  0
  -29.0956  -30.4286  -16.0887 C   0  0  0  0  0  0  0  0  0  0  0  0
  -29.6662  -29.3183  -16.9746 C   0  0  0  0  0  0  0  0  0  0  0  0
  -29.5367  -29.4585  -18.5387 N   0  0  0  0  0  0  0  0  0  0  0  0
  -29.5173  -30.6852  -19.4177 C   0  0  0  0  0  0  0  0  0  0  0  0
  -29.5146  -31.8242  -19.1319 O   0  0  0  0  0  0  0  0  0  0  0  0
  -29.5549  -30.2046  -20.9320 C   0  0  0  0  0  0  0  0  0  0  0  0
  -29.1588  -28.8999  -21.0757 F   0  0  0  0  0  0  0  0  0  0  0  0
  -30.8654  -30.1486  -21.3346 F   0  0  0  0  0  0  0  0  0  0  0  0
  -28.7318  -31.1097  -21.8784 C   0  0  0  0  0  0  0  0  0  0  0  0
  -28.9348  -32.4861  -21.9253 C   0  0  0  0  0  0  0  0  0  0  0  0
  -28.3014  -33.2723  -22.8883 C   0  0  0  0  0  0  0  0  0  0  0  0
  -27.4682  -32.6715  -23.8098 C   0  0  0  0  0  0  0  0  0  0  0  0
  -27.3105  -31.3047  -23.7219 C   0  0  0  0  0  0  0  0  0  0  0  0
  -27.8968  -30.5235  -22.7841 N   0  0  0  0  0  0  0  0  0  0  0  0
  1  2  1  0
  2  3  2  0
  3  4  1  0
  4  5  2  0
  5  6  1  0
  6  7  2  0
  6  8  1  0
  8  9  1  0
  9 10  1  0
 10 11  1  0
 11 12  1  0
 12 13  2  0
 12 14  1  0
 14 15  1  0
 14 16  1  0
 14 17  1  0
 17 18  2  0
 18 19  1  0
 19 20  2  0
 20 21  1  0
 21 22  2  0
  7  2  1  0
 22 17  1  0
 11  5  1  0
M  END
>  <HIPPO Pose ID>  (273) 
112011

>  <fragmenstein_outcome>  (273) 
acceptable

>  <energy_score>  (273) 
-79.118675

>  <distance_score>  (273) 
0.988434

>  <fragmenstein_mode>  (273) 
expansion

>  <HIPPO Compound ID>  (273) 
32935

>  <name>  (273) 
WUKVKJNYTBJBJR-UHFFFAOYSA-N

>  <ref_pdb>  (273) 
z0165a

>  <ref_mols>  (273) 
z0165a,d0472b

>  <csv_name>  (273) 
RdRp_knitwork_green_site_rna_tunnel_pure_split4000_batch012.csv

>  <fragmenstein_runtime>  (273) 
5.001261

>  <tags>  (273) 
['Fragmenstein placed']

>  <original ID>  (273) 
WUKVKJNYTBJBJR-UHFFFAOYSA-N

>  <fragmenstein_error>  (273) 
None

>  <original SMILES>  (273) 
Cc1ccc2c(c1)CCCN2C(=O)C(F)(F)c1ccccn1

>  <inchikey>  (273) 
WUKVKJNYTBJBJR-UHFFFAOYSA-N

>  <SLURM_JOB_NAME>  (273) 
BulkDock.place:Flavi_NS5_RdRp:RdRp_knitwork_green_site_rna_tunnel_pure_split4000_batch012

>  <scratch_subdir>  (273) 
/opt/xchem-fragalysis-2/maxwin/BulkDock/SCRATCH/217083/C32935-P3

>  <alias>  (273) 
None

>  <SLURM_JOB_ID>  (273) 
217083

>  <exports>  (273) 
['/opt/xchem-fragalysis-2/maxwin/BulkDock/OUTPUTS/RdRp_knitwork_green_site_rna_tunnel_pure_split4000_batch012_217083.sdf']

$$$$
112144
     RDKit          3D

 23 25  0  0  0  0  0  0  0  0999 V2000
  -27.3657  -29.8068  -23.0537 O   0  0  0  0  0  0  0  0  0  0  0  0
  -27.9796  -29.8540  -22.0044 C   0  0  0  0  0  0  0  0  0  0  0  0
  -29.1996  -29.2427  -21.7872 N   0  0  0  0  0  0  0  0  0  0  0  0
  -29.6220  -29.4260  -20.4366 C   0  0  0  0  0  0  0  0  0  0  0  0
  -28.2868  -29.6836  -19.7339 C   0  0  1  0  0  0  0  0  0  0  0  0
  -28.3102  -29.9538  -18.2615 C   0  0  0  0  0  0  0  0  0  0  0  0
  -27.1076  -29.9080  -17.5315 C   0  0  0  0  0  0  0  0  0  0  0  0
  -27.1028  -29.9248  -16.1394 C   0  0  0  0  0  0  0  0  0  0  0  0
  -28.3073  -29.9905  -15.4579 C   0  0  0  0  0  0  0  0  0  0  0  0
  -29.5027  -30.0507  -16.1656 C   0  0  0  0  0  0  0  0  0  0  0  0
  -29.5110  -30.0302  -17.5546 C   0  0  0  0  0  0  0  0  0  0  0  0
  -27.6179  -30.6357  -20.7533 C   0  0  2  0  0  0  0  0  0  0  0  0
  -26.1247  -30.9964  -20.6817 C   0  0  0  0  0  0  0  0  0  0  0  0
  -25.3463  -30.3373  -20.1127 O   0  0  0  0  0  0  0  0  0  0  0  0
  -25.9186  -32.2717  -21.5658 N   0  0  0  0  0  0  0  0  0  0  0  0
  -24.7874  -32.8819  -21.9692 N   0  0  0  0  0  0  0  0  0  0  0  0
  -23.6686  -32.8206  -21.3059 C   0  0  0  0  0  0  0  0  0  0  0  0
  -23.4048  -32.5309  -19.8908 C   0  0  0  0  0  0  0  0  0  0  0  0
  -22.2228  -31.9172  -19.5005 C   0  0  0  0  0  0  0  0  0  0  0  0
  -21.9633  -31.7640  -18.1381 C   0  0  0  0  0  0  0  0  0  0  0  0
  -22.9005  -32.2096  -17.2198 C   0  0  0  0  0  0  0  0  0  0  0  0
  -24.0346  -32.8464  -17.5682 N   0  0  0  0  0  0  0  0  0  0  0  0
  -24.2366  -33.0176  -18.8981 C   0  0  0  0  0  0  0  0  0  0  0  0
  1  2  2  0
  2  3  1  0
  3  4  1  0
  4  5  1  0
  5  6  1  1
  6  7  2  0
  7  8  1  0
  8  9  2  0
  9 10  1  0
 10 11  2  0
  5 12  1  0
 12 13  1  1
 13 14  2  0
 13 15  1  0
 15 16  1  0
 16 17  2  3
 17 18  1  0
 18 19  2  0
 19 20  1  0
 20 21  2  0
 21 22  1  0
 22 23  2  0
 12  2  1  0
 23 18  1  0
 11  6  1  0
M  END
>  <HIPPO Pose ID>  (274) 
112144

>  <fragmenstein_outcome>  (274) 
acceptable

>  <energy_score>  (274) 
-18.30543

>  <distance_score>  (274) 
0.983358

>  <fragmenstein_mode>  (274) 
expansion

>  <HIPPO Compound ID>  (274) 
7426

>  <name>  (274) 
IXYMHFSREYCOFO-GJZGRUSLSA-N

>  <ref_pdb>  (274) 
z1018a

>  <ref_mols>  (274) 
z0215a,z1018a

>  <csv_name>  (274) 
RdRp_knitwork_green_site_rna_tunnel_pure_split4000_batch005.csv

>  <fragmenstein_runtime>  (274) 
8.760261

>  <tags>  (274) 
['Fragmenstein placed']

>  <original ID>  (274) 
IXYMHFSREYCOFO-GJZGRUSLSA-N

>  <fragmenstein_error>  (274) 
None

>  <original SMILES>  (274) 
O=C1NC[C@@H](c2ccccc2)[C@@H]1C(=O)NN=Cc1cccnc1

>  <inchikey>  (274) 
IXYMHFSREYCOFO-GJZGRUSLSA-N

>  <SLURM_JOB_NAME>  (274) 
BulkDock.place:Flavi_NS5_RdRp:RdRp_knitwork_green_site_rna_tunnel_pure_split4000_batch005

>  <scratch_subdir>  (274) 
/opt/xchem-fragalysis-2/maxwin/BulkDock/SCRATCH/217076/C7426-P206

>  <alias>  (274) 
None

>  <SLURM_JOB_ID>  (274) 
217076

>  <exports>  (274) 
['/opt/xchem-fragalysis-2/maxwin/BulkDock/OUTPUTS/RdRp_knitwork_green_site_rna_tunnel_pure_split4000_batch005_217076.sdf']

$$$$
112810
     RDKit          3D

 22 23  0  0  0  0  0  0  0  0999 V2000
  -25.2272  -32.7080  -13.6928 O   0  0  0  0  0  0  0  0  0  0  0  0
  -26.2075  -32.6100  -14.4148 C   0  0  0  0  0  0  0  0  0  0  0  0
  -27.4376  -32.8654  -13.9145 O   0  0  0  0  0  0  0  0  0  0  0  0
  -26.2415  -32.2025  -15.8890 C   0  0  2  0  0  0  0  0  0  0  0  0
  -25.0075  -32.8187  -16.5774 C   0  0  0  0  0  0  0  0  0  0  0  0
  -25.1359  -32.8261  -18.0776 C   0  0  0  0  0  0  0  0  0  0  0  0
  -25.9142  -33.7840  -18.7341 C   0  0  0  0  0  0  0  0  0  0  0  0
  -26.0329  -33.7409  -20.1176 C   0  0  0  0  0  0  0  0  0  0  0  0
  -25.3679  -32.7375  -20.7987 C   0  0  0  0  0  0  0  0  0  0  0  0
  -24.6266  -31.7872  -20.1951 N   0  0  0  0  0  0  0  0  0  0  0  0
  -24.5163  -31.8536  -18.8537 C   0  0  0  0  0  0  0  0  0  0  0  0
  -26.2491  -30.7238  -15.9917 N   0  0  0  0  0  0  0  0  0  0  0  0
  -27.6068  -30.1739  -15.9255 C   0  0  0  0  0  0  0  0  0  0  0  0
  -28.2822  -30.2671  -17.2660 C   0  0  0  0  0  0  0  0  0  0  0  0
  -29.6401  -30.3941  -17.4718 C   0  0  0  0  0  0  0  0  0  0  0  0
  -29.9786  -30.5339  -19.1391 S   0  0  0  0  0  0  0  0  0  0  0  0
  -28.3017  -30.3689  -19.4987 C   0  0  0  0  0  0  0  0  0  0  0  0
  -27.8922  -30.4299  -20.9424 C   0  0  0  0  0  0  0  0  0  0  0  0
  -28.0340  -31.6837  -21.4590 F   0  0  0  0  0  0  0  0  0  0  0  0
  -28.6504  -29.6130  -21.7267 F   0  0  0  0  0  0  0  0  0  0  0  0
  -26.6086  -30.0670  -21.1564 F   0  0  0  0  0  0  0  0  0  0  0  0
  -27.5237  -30.2208  -18.4353 N   0  0  0  0  0  0  0  0  0  0  0  0
  1  2  2  0
  2  3  1  0
  2  4  1  0
  4  5  1  6
  5  6  1  0
  6  7  2  0
  7  8  1  0
  8  9  2  0
  9 10  1  0
 10 11  2  0
  4 12  1  0
 12 13  1  0
 13 14  1  0
 14 15  2  0
 15 16  1  0
 16 17  1  0
 17 18  1  0
 18 19  1  0
 18 20  1  0
 18 21  1  0
 17 22  2  0
 11  6  1  0
 22 14  1  0
M  END
>  <HIPPO Pose ID>  (275) 
112810

>  <fragmenstein_outcome>  (275) 
acceptable

>  <energy_score>  (275) 
-228.84879

>  <distance_score>  (275) 
0.942576

>  <fragmenstein_mode>  (275) 
expansion

>  <HIPPO Compound ID>  (275) 
12620

>  <name>  (275) 
XZHCRNZZAIPYOB-JTQLQIEISA-N

>  <ref_pdb>  (275) 
z0384a

>  <ref_mols>  (275) 
d0472b,z0384a

>  <csv_name>  (275) 
RdRp_knitwork_green_site_rna_tunnel_pure_split4000_batch015.csv

>  <fragmenstein_runtime>  (275) 
3.37829

>  <tags>  (275) 
['Fragmenstein placed']

>  <original ID>  (275) 
XZHCRNZZAIPYOB-JTQLQIEISA-N

>  <fragmenstein_error>  (275) 
None

>  <original SMILES>  (275) 
O=C(O)[C@H](Cc1cccnc1)NCc1csc(C(F)(F)F)n1

>  <inchikey>  (275) 
XZHCRNZZAIPYOB-JTQLQIEISA-N

>  <SLURM_JOB_NAME>  (275) 
BulkDock.place:Flavi_NS5_RdRp:RdRp_knitwork_green_site_rna_tunnel_pure_split4000_batch015

>  <scratch_subdir>  (275) 
/opt/xchem-fragalysis-2/maxwin/BulkDock/SCRATCH/217086/C12620-P120

>  <alias>  (275) 
None

>  <SLURM_JOB_ID>  (275) 
217086

>  <exports>  (275) 
['/opt/xchem-fragalysis-2/maxwin/BulkDock/OUTPUTS/RdRp_knitwork_green_site_rna_tunnel_pure_split4000_batch015_217086.sdf']

$$$$
112867
     RDKit          3D

 21 22  0  0  0  0  0  0  0  0999 V2000
  -28.9118  -33.0431  -20.2993 C   0  0  0  0  0  0  0  0  0  0  0  0
  -28.0929  -32.1304  -21.0212 O   0  0  0  0  0  0  0  0  0  0  0  0
  -28.3497  -30.7354  -20.7717 C   0  0  0  0  0  0  0  0  0  0  0  0
  -28.3799  -30.4194  -19.3076 C   0  0  0  0  0  0  0  0  0  0  0  0
  -27.3297  -30.2560  -18.5339 N   0  0  0  0  0  0  0  0  0  0  0  0
  -27.7191  -30.1521  -17.2050 C   0  0  0  0  0  0  0  0  0  0  0  0
  -26.6599  -30.1424  -16.1511 C   0  0  0  0  0  0  0  0  0  0  0  0
  -26.2619  -31.5269  -15.9032 N   0  0  0  0  0  0  0  0  0  0  0  0
  -24.7985  -31.7021  -15.7845 C   0  0  2  0  0  0  0  0  0  0  0  0
  -24.3401  -32.8677  -16.6851 C   0  0  0  0  0  0  0  0  0  0  0  0
  -24.6479  -32.7118  -18.1552 C   0  0  0  0  0  0  0  0  0  0  0  0
  -25.1998  -33.7643  -18.8871 C   0  0  0  0  0  0  0  0  0  0  0  0
  -25.4568  -33.5967  -20.2428 C   0  0  0  0  0  0  0  0  0  0  0  0
  -25.1492  -32.3792  -20.8288 C   0  0  0  0  0  0  0  0  0  0  0  0
  -24.5992  -31.3440  -20.1656 N   0  0  0  0  0  0  0  0  0  0  0  0
  -24.3600  -31.5378  -18.8489 C   0  0  0  0  0  0  0  0  0  0  0  0
  -24.4467  -32.0168  -14.3292 C   0  0  0  0  0  0  0  0  0  0  0  0
  -25.2302  -32.0983  -13.3940 O   0  0  0  0  0  0  0  0  0  0  0  0
  -23.1267  -32.1876  -14.1116 O   0  0  0  0  0  0  0  0  0  0  0  0
  -29.0840  -30.0830  -17.0126 C   0  0  0  0  0  0  0  0  0  0  0  0
  -29.8923  -30.2660  -18.5054 S   0  0  0  0  0  0  0  0  0  0  0  0
  1  2  1  0
  2  3  1  0
  3  4  1  0
  4  5  2  0
  5  6  1  0
  6  7  1  0
  7  8  1  0
  8  9  1  0
  9 10  1  6
 10 11  1  0
 11 12  2  0
 12 13  1  0
 13 14  2  0
 14 15  1  0
 15 16  2  0
  9 17  1  0
 17 18  2  0
 17 19  1  0
  6 20  2  0
 20 21  1  0
 21  4  1  0
 16 11  1  0
M  END
>  <HIPPO Pose ID>  (276) 
112867

>  <fragmenstein_outcome>  (276) 
acceptable

>  <energy_score>  (276) 
-193.698071

>  <distance_score>  (276) 
0.995651

>  <fragmenstein_mode>  (276) 
expansion

>  <HIPPO Compound ID>  (276) 
12722

>  <name>  (276) 
NQEZMDZCLYPMFK-GFCCVEGCSA-N

>  <ref_pdb>  (276) 
z0384a

>  <ref_mols>  (276) 
d0472b,z0384a

>  <csv_name>  (276) 
RdRp_knitwork_green_site_rna_tunnel_pure_split4000_batch015.csv

>  <fragmenstein_runtime>  (276) 
2.008646

>  <tags>  (276) 
['Fragmenstein placed']

>  <original ID>  (276) 
NQEZMDZCLYPMFK-GFCCVEGCSA-N

>  <fragmenstein_error>  (276) 
None

>  <original SMILES>  (276) 
COCc1nc(CN[C@H](Cc2cccnc2)C(=O)O)cs1

>  <inchikey>  (276) 
NQEZMDZCLYPMFK-GFCCVEGCSA-N

>  <SLURM_JOB_NAME>  (276) 
BulkDock.place:Flavi_NS5_RdRp:RdRp_knitwork_green_site_rna_tunnel_pure_split4000_batch015

>  <scratch_subdir>  (276) 
/opt/xchem-fragalysis-2/maxwin/BulkDock/SCRATCH/217086/C12722-P120

>  <alias>  (276) 
None

>  <SLURM_JOB_ID>  (276) 
217086

>  <exports>  (276) 
['/opt/xchem-fragalysis-2/maxwin/BulkDock/OUTPUTS/RdRp_knitwork_green_site_rna_tunnel_pure_split4000_batch015_217086.sdf']

$$$$
113088
     RDKit          3D

 23 25  0  0  0  0  0  0  0  0999 V2000
  -25.3410  -31.2694  -22.7959 O   0  0  0  0  0  0  0  0  0  0  0  0
  -25.4475  -31.4878  -21.6545 C   0  0  0  0  0  0  0  0  0  0  0  0
  -24.4284  -32.2499  -20.8247 C   0  0  0  0  0  0  0  0  0  0  0  0
  -23.8302  -31.2822  -19.7889 C   0  0  0  0  0  0  0  0  0  0  0  0
  -24.0404  -31.6953  -18.3398 C   0  0  0  0  0  0  0  0  0  0  0  0
  -22.9175  -32.5044  -17.7562 C   0  0  0  0  0  0  0  0  0  0  0  0
  -22.2545  -33.5023  -18.4780 C   0  0  0  0  0  0  0  0  0  0  0  0
  -21.2332  -34.2469  -17.8877 C   0  0  0  0  0  0  0  0  0  0  0  0
  -20.8666  -34.0114  -16.5667 C   0  0  0  0  0  0  0  0  0  0  0  0
  -21.5316  -33.0340  -15.8339 C   0  0  0  0  0  0  0  0  0  0  0  0
  -22.5544  -32.2896  -16.4212 C   0  0  0  0  0  0  0  0  0  0  0  0
  -26.5250  -31.0214  -20.6363 N   0  0  0  0  0  0  0  0  0  0  0  0
  -27.5693  -30.1689  -20.7879 C   0  0  0  0  0  0  0  0  0  0  0  0
  -27.9097  -29.5200  -21.9375 C   0  0  0  0  0  0  0  0  0  0  0  0
  -29.1167  -28.9548  -21.6816 N   0  0  0  0  0  0  0  0  0  0  0  0
  -29.4762  -29.0266  -20.4038 N   0  0  0  0  0  0  0  0  0  0  0  0
  -28.4752  -29.6910  -19.8100 C   0  0  0  0  0  0  0  0  0  0  0  0
  -28.3871  -29.8165  -18.3631 C   0  0  0  0  0  0  0  0  0  0  0  0
  -27.1516  -29.7447  -17.7193 C   0  0  0  0  0  0  0  0  0  0  0  0
  -27.1122  -29.8433  -16.3377 C   0  0  0  0  0  0  0  0  0  0  0  0
  -28.3111  -29.9297  -15.6493 C   0  0  0  0  0  0  0  0  0  0  0  0
  -29.4917  -29.9749  -16.3652 C   0  0  0  0  0  0  0  0  0  0  0  0
  -29.5548  -29.9470  -17.7004 N   0  0  0  0  0  0  0  0  0  0  0  0
  1  2  2  0
  2  3  1  0
  3  4  1  0
  4  5  1  0
  5  6  1  0
  6  7  2  0
  7  8  1  0
  8  9  2  0
  9 10  1  0
 10 11  2  0
  2 12  1  0
 12 13  1  0
 13 14  2  0
 14 15  1  0
 15 16  1  0
 16 17  2  0
 17 18  1  0
 18 19  2  0
 19 20  1  0
 20 21  2  0
 21 22  1  0
 22 23  2  0
 11  6  1  0
 17 13  1  0
 23 18  1  0
M  END
>  <HIPPO Pose ID>  (277) 
113088

>  <fragmenstein_outcome>  (277) 
acceptable

>  <energy_score>  (277) 
-27.628248

>  <distance_score>  (277) 
0.970516

>  <fragmenstein_mode>  (277) 
expansion

>  <HIPPO Compound ID>  (277) 
19954

>  <name>  (277) 
FCSKNHMJMJFCAU-UHFFFAOYSA-N

>  <ref_pdb>  (277) 
z0637a

>  <ref_mols>  (277) 
z0215a,z0637a

>  <csv_name>  (277) 
RdRp_knitwork_green_site_rna_tunnel_pure_split4000_batch007.csv

>  <fragmenstein_runtime>  (277) 
10.067601

>  <tags>  (277) 
['Fragmenstein placed']

>  <original ID>  (277) 
FCSKNHMJMJFCAU-UHFFFAOYSA-N

>  <fragmenstein_error>  (277) 
None

>  <original SMILES>  (277) 
O=C(CCCc1ccccc1)Nc1c[nH]nc1-c1ccccn1

>  <inchikey>  (277) 
FCSKNHMJMJFCAU-UHFFFAOYSA-N

>  <SLURM_JOB_NAME>  (277) 
BulkDock.place:Flavi_NS5_RdRp:RdRp_knitwork_green_site_rna_tunnel_pure_split4000_batch007

>  <scratch_subdir>  (277) 
/opt/xchem-fragalysis-2/maxwin/BulkDock/SCRATCH/217078/C19954-P151

>  <alias>  (277) 
None

>  <SLURM_JOB_ID>  (277) 
217078

>  <exports>  (277) 
['/opt/xchem-fragalysis-2/maxwin/BulkDock/OUTPUTS/RdRp_knitwork_green_site_rna_tunnel_pure_split4000_batch007_217078.sdf']

$$$$
113346
     RDKit          3D

 23 25  0  0  0  0  0  0  0  0999 V2000
  -24.7932  -31.0221  -17.9261 C   0  0  0  0  0  0  0  0  0  0  0  0
  -24.1764  -32.1573  -18.7567 C   0  0  1  0  0  0  0  0  0  0  0  0
  -24.1541  -31.9494  -20.3015 C   0  0  0  0  0  0  0  0  0  0  0  0
  -25.2191  -31.2473  -21.1758 C   0  0  0  0  0  0  0  0  0  0  0  0
  -25.0085  -31.0526  -22.3064 O   0  0  0  0  0  0  0  0  0  0  0  0
  -26.4705  -30.9548  -20.3294 N   0  0  0  0  0  0  0  0  0  0  0  0
  -27.6265  -30.3121  -20.6521 C   0  0  0  0  0  0  0  0  0  0  0  0
  -28.0285  -29.9657  -21.9119 C   0  0  0  0  0  0  0  0  0  0  0  0
  -29.2946  -29.4938  -21.7659 N   0  0  0  0  0  0  0  0  0  0  0  0
  -29.7143  -29.4518  -20.4967 N   0  0  0  0  0  0  0  0  0  0  0  0
  -28.6818  -29.9128  -19.7751 C   0  0  0  0  0  0  0  0  0  0  0  0
  -28.7107  -29.9700  -18.3058 C   0  0  0  0  0  0  0  0  0  0  0  0
  -27.6505  -29.4816  -17.5530 C   0  0  0  0  0  0  0  0  0  0  0  0
  -27.6405  -29.6685  -16.1734 C   0  0  0  0  0  0  0  0  0  0  0  0
  -28.7224  -30.2832  -15.5709 C   0  0  0  0  0  0  0  0  0  0  0  0
  -29.7650  -30.6934  -16.3802 C   0  0  0  0  0  0  0  0  0  0  0  0
  -29.7769  -30.5602  -17.7233 N   0  0  0  0  0  0  0  0  0  0  0  0
  -22.7391  -32.5657  -18.2633 C   0  0  0  0  0  0  0  0  0  0  0  0
  -22.6320  -32.7072  -16.7295 C   0  0  0  0  0  0  0  0  0  0  0  0
  -21.2611  -33.1961  -16.2738 C   0  0  0  0  0  0  0  0  0  0  0  0
  -20.8779  -34.5044  -16.9433 C   0  0  0  0  0  0  0  0  0  0  0  0
  -20.9271  -34.3596  -18.4545 C   0  0  0  0  0  0  0  0  0  0  0  0
  -22.2906  -33.8813  -18.9376 C   0  0  0  0  0  0  0  0  0  0  0  0
  2  1  1  1
  2  3  1  0
  3  4  1  0
  4  5  2  0
  4  6  1  0
  6  7  1  0
  7  8  2  0
  8  9  1  0
  9 10  1  0
 10 11  2  0
 11 12  1  0
 12 13  2  0
 13 14  1  0
 14 15  2  0
 15 16  1  0
 16 17  2  0
  2 18  1  0
 18 19  1  0
 19 20  1  0
 20 21  1  0
 21 22  1  0
 22 23  1  0
 11  7  1  0
 17 12  1  0
 23 18  1  0
M  END
>  <HIPPO Pose ID>  (278) 
113346

>  <fragmenstein_outcome>  (278) 
acceptable

>  <energy_score>  (278) 
-76.592628

>  <distance_score>  (278) 
0.929189

>  <fragmenstein_mode>  (278) 
expansion

>  <HIPPO Compound ID>  (278) 
20103

>  <name>  (278) 
DTMGIEXNNNEZRK-ZDUSSCGKSA-N

>  <ref_pdb>  (278) 
z0215a

>  <ref_mols>  (278) 
z0215a,z0637a

>  <csv_name>  (278) 
RdRp_knitwork_green_site_rna_tunnel_pure_split4000_batch007.csv

>  <fragmenstein_runtime>  (278) 
8.671056

>  <tags>  (278) 
['Fragmenstein placed']

>  <original ID>  (278) 
DTMGIEXNNNEZRK-ZDUSSCGKSA-N

>  <fragmenstein_error>  (278) 
None

>  <original SMILES>  (278) 
C[C@@H](CC(=O)Nc1c[nH]nc1-c1ccccn1)C1CCCCC1

>  <inchikey>  (278) 
DTMGIEXNNNEZRK-ZDUSSCGKSA-N

>  <SLURM_JOB_NAME>  (278) 
BulkDock.place:Flavi_NS5_RdRp:RdRp_knitwork_green_site_rna_tunnel_pure_split4000_batch007

>  <scratch_subdir>  (278) 
/opt/xchem-fragalysis-2/maxwin/BulkDock/SCRATCH/217078/C20103-P104

>  <alias>  (278) 
None

>  <SLURM_JOB_ID>  (278) 
217078

>  <exports>  (278) 
['/opt/xchem-fragalysis-2/maxwin/BulkDock/OUTPUTS/RdRp_knitwork_green_site_rna_tunnel_pure_split4000_batch007_217078.sdf']

$$$$
113358
     RDKit          3D

 23 25  0  0  0  0  0  0  0  0999 V2000
  -24.2147  -30.5104  -18.1873 C   0  0  0  0  0  0  0  0  0  0  0  0
  -23.9647  -31.7932  -18.9929 C   0  0  1  0  0  0  0  0  0  0  0  0
  -23.9070  -31.5704  -20.5219 C   0  0  0  0  0  0  0  0  0  0  0  0
  -25.0417  -30.8914  -21.3300 C   0  0  0  0  0  0  0  0  0  0  0  0
  -24.8442  -30.5536  -22.4310 O   0  0  0  0  0  0  0  0  0  0  0  0
  -26.2973  -30.7263  -20.4404 N   0  0  0  0  0  0  0  0  0  0  0  0
  -27.4688  -30.0660  -20.6744 C   0  0  0  0  0  0  0  0  0  0  0  0
  -27.8225  -29.5126  -21.8730 C   0  0  0  0  0  0  0  0  0  0  0  0
  -29.0926  -29.0588  -21.7099 N   0  0  0  0  0  0  0  0  0  0  0  0
  -29.5548  -29.1982  -20.4723 N   0  0  0  0  0  0  0  0  0  0  0  0
  -28.5290  -29.7283  -19.7891 C   0  0  0  0  0  0  0  0  0  0  0  0
  -28.5497  -29.8245  -18.3389 C   0  0  0  0  0  0  0  0  0  0  0  0
  -27.3869  -29.6007  -17.6160 C   0  0  0  0  0  0  0  0  0  0  0  0
  -27.3990  -29.7250  -16.2404 C   0  0  0  0  0  0  0  0  0  0  0  0
  -28.6161  -29.8929  -15.6211 C   0  0  0  0  0  0  0  0  0  0  0  0
  -29.7424  -30.0469  -16.4073 C   0  0  0  0  0  0  0  0  0  0  0  0
  -29.7321  -30.0649  -17.7465 N   0  0  0  0  0  0  0  0  0  0  0  0
  -22.6651  -32.4498  -18.4280 C   0  0  0  0  0  0  0  0  0  0  0  0
  -22.8724  -32.8859  -16.9638 C   0  0  0  0  0  0  0  0  0  0  0  0
  -21.6243  -33.5250  -16.3716 C   0  0  0  0  0  0  0  0  0  0  0  0
  -21.1653  -34.7072  -17.2113 C   0  0  0  0  0  0  0  0  0  0  0  0
  -20.9086  -34.2802  -18.6481 C   0  0  0  0  0  0  0  0  0  0  0  0
  -22.1095  -33.5904  -19.2888 C   0  0  0  0  0  0  0  0  0  0  0  0
  2  1  1  1
  2  3  1  0
  3  4  1  0
  4  5  2  0
  4  6  1  0
  6  7  1  0
  7  8  2  0
  8  9  1  0
  9 10  1  0
 10 11  2  0
 11 12  1  0
 12 13  2  0
 13 14  1  0
 14 15  2  0
 15 16  1  0
 16 17  2  0
  2 18  1  0
 18 19  1  0
 19 20  1  0
 20 21  1  0
 21 22  1  0
 22 23  1  0
 11  7  1  0
 17 12  1  0
 23 18  1  0
M  END
>  <HIPPO Pose ID>  (279) 
113358

>  <fragmenstein_outcome>  (279) 
acceptable

>  <energy_score>  (279) 
-80.172905

>  <distance_score>  (279) 
0.868422

>  <fragmenstein_mode>  (279) 
expansion

>  <HIPPO Compound ID>  (279) 
20103

>  <name>  (279) 
DTMGIEXNNNEZRK-ZDUSSCGKSA-N

>  <ref_pdb>  (279) 
z0637a

>  <ref_mols>  (279) 
z0215a,z0637a

>  <csv_name>  (279) 
RdRp_knitwork_green_site_rna_tunnel_pure_split4000_batch007.csv

>  <fragmenstein_runtime>  (279) 
10.194542

>  <tags>  (279) 
['Fragmenstein placed']

>  <original ID>  (279) 
DTMGIEXNNNEZRK-ZDUSSCGKSA-N

>  <fragmenstein_error>  (279) 
None

>  <original SMILES>  (279) 
C[C@@H](CC(=O)Nc1c[nH]nc1-c1ccccn1)C1CCCCC1

>  <inchikey>  (279) 
DTMGIEXNNNEZRK-ZDUSSCGKSA-N

>  <SLURM_JOB_NAME>  (279) 
BulkDock.place:Flavi_NS5_RdRp:RdRp_knitwork_green_site_rna_tunnel_pure_split4000_batch007

>  <scratch_subdir>  (279) 
/opt/xchem-fragalysis-2/maxwin/BulkDock/SCRATCH/217078/C20103-P151

>  <alias>  (279) 
None

>  <SLURM_JOB_ID>  (279) 
217078

>  <exports>  (279) 
['/opt/xchem-fragalysis-2/maxwin/BulkDock/OUTPUTS/RdRp_knitwork_green_site_rna_tunnel_pure_split4000_batch007_217078.sdf']

$$$$
114500
     RDKit          3D

 22 25  0  0  0  0  0  0  0  0999 V2000
  -19.3563  -33.5669  -19.8544 C   0  0  0  0  0  0  0  0  0  0  0  0
  -19.6809  -32.4756  -20.6603 C   0  0  0  0  0  0  0  0  0  0  0  0
  -20.8122  -32.5013  -21.4873 C   0  0  0  0  0  0  0  0  0  0  0  0
  -21.6395  -33.6421  -21.4868 C   0  0  0  0  0  0  0  0  0  0  0  0
  -22.8702  -34.0272  -22.1122 C   0  0  0  0  0  0  0  0  0  0  0  0
  -23.7548  -33.2140  -23.0095 C   0  0  0  0  0  0  0  0  0  0  0  0
  -23.9955  -31.8120  -22.6661 N   0  0  0  0  0  0  0  0  0  0  0  0
  -24.3969  -31.6069  -21.3959 C   0  0  0  0  0  0  0  0  0  0  0  0
  -23.6753  -31.4630  -20.3090 N   0  0  0  0  0  0  0  0  0  0  0  0
  -24.5468  -31.1690  -19.2908 N   0  0  0  0  0  0  0  0  0  0  0  0
  -25.7414  -31.1188  -19.8380 C   0  0  0  0  0  0  0  0  0  0  0  0
  -27.0072  -30.7564  -19.2295 C   0  0  0  0  0  0  0  0  0  0  0  0
  -28.1953  -30.7119  -19.9583 C   0  0  0  0  0  0  0  0  0  0  0  0
  -29.3627  -30.3766  -19.2974 C   0  0  0  0  0  0  0  0  0  0  0  0
  -29.4145  -30.0709  -17.9843 N   0  0  0  0  0  0  0  0  0  0  0  0
  -28.2551  -30.1018  -17.2990 C   0  0  0  0  0  0  0  0  0  0  0  0
  -27.0422  -30.4340  -17.8699 C   0  0  0  0  0  0  0  0  0  0  0  0
  -25.7295  -31.4188  -21.1760 O   0  0  0  0  0  0  0  0  0  0  0  0
  -23.1154  -35.3161  -21.6759 C   0  0  0  0  0  0  0  0  0  0  0  0
  -22.1571  -35.7340  -20.8115 O   0  0  0  0  0  0  0  0  0  0  0  0
  -21.2786  -34.7057  -20.6677 C   0  0  0  0  0  0  0  0  0  0  0  0
  -20.1564  -34.7136  -19.8397 C   0  0  0  0  0  0  0  0  0  0  0  0
  1  2  2  0
  2  3  1  0
  3  4  2  0
  4  5  1  0
  5  6  1  0
  6  7  1  0
  7  8  1  0
  8  9  2  0
  9 10  1  0
 10 11  2  0
 11 12  1  0
 12 13  2  0
 13 14  1  0
 14 15  2  0
 15 16  1  0
 16 17  2  0
 11 18  1  0
  5 19  2  0
 19 20  1  0
 20 21  1  0
 21 22  2  0
 22  1  1  0
 21  4  1  0
 18  8  1  0
 17 12  1  0
M  END
>  <HIPPO Pose ID>  (280) 
114500

>  <fragmenstein_outcome>  (280) 
acceptable

>  <energy_score>  (280) 
-43.169619

>  <distance_score>  (280) 
0.572674

>  <fragmenstein_mode>  (280) 
expansion

>  <HIPPO Compound ID>  (280) 
34426

>  <name>  (280) 
XEQQWXZOYCSSPP-UHFFFAOYSA-N

>  <ref_pdb>  (280) 
z0411a

>  <ref_mols>  (280) 
z0411a,3vws-b

>  <csv_name>  (280) 
RdRp_knitwork_green_site_rna_tunnel_pure_split4000_batch007.csv

>  <fragmenstein_runtime>  (280) 
3.179706

>  <tags>  (280) 
['Fragmenstein placed']

>  <original ID>  (280) 
XEQQWXZOYCSSPP-UHFFFAOYSA-N

>  <fragmenstein_error>  (280) 
None

>  <original SMILES>  (280) 
c1ccc2c(CNc3nnc(-c4ccncc4)o3)coc2c1

>  <inchikey>  (280) 
XEQQWXZOYCSSPP-UHFFFAOYSA-N

>  <SLURM_JOB_NAME>  (280) 
BulkDock.place:Flavi_NS5_RdRp:RdRp_knitwork_green_site_rna_tunnel_pure_split4000_batch007

>  <scratch_subdir>  (280) 
/opt/xchem-fragalysis-2/maxwin/BulkDock/SCRATCH/217078/C34426-P123

>  <alias>  (280) 
None

>  <SLURM_JOB_ID>  (280) 
217078

>  <exports>  (280) 
['/opt/xchem-fragalysis-2/maxwin/BulkDock/OUTPUTS/RdRp_knitwork_green_site_rna_tunnel_pure_split4000_batch007_217078.sdf']

$$$$
114721
     RDKit          3D

 20 21  0  0  0  0  0  0  0  0999 V2000
  -21.1732  -32.9054  -23.8959 C   0  0  0  0  0  0  0  0  0  0  0  0
  -22.0787  -32.4718  -22.7576 C   0  0  1  0  0  0  0  0  0  0  0  0
  -21.4327  -31.4233  -22.0423 O   0  0  0  0  0  0  0  0  0  0  0  0
  -23.4438  -32.0341  -23.2807 C   0  0  0  0  0  0  0  0  0  0  0  0
  -24.3114  -31.5512  -22.2433 N   0  0  0  0  0  0  0  0  0  0  0  0
  -25.6815  -30.8343  -22.3345 C   0  0  0  0  0  0  0  0  0  0  0  0
  -26.2610  -30.4682  -23.2438 O   0  0  0  0  0  0  0  0  0  0  0  0
  -26.0683  -30.8293  -20.8285 N   0  0  0  0  0  0  0  0  0  0  0  0
  -27.2544  -30.4634  -20.2064 C   0  0  0  0  0  0  0  0  0  0  0  0
  -28.3879  -30.1640  -20.9498 C   0  0  0  0  0  0  0  0  0  0  0  0
  -29.5936  -29.9180  -20.3031 C   0  0  0  0  0  0  0  0  0  0  0  0
  -29.6366  -29.8719  -18.9118 C   0  0  0  0  0  0  0  0  0  0  0  0
  -28.4726  -30.0276  -18.1565 C   0  0  0  0  0  0  0  0  0  0  0  0
  -27.3013  -30.3978  -18.8134 C   0  0  0  0  0  0  0  0  0  0  0  0
  -26.1761  -30.7906  -18.1463 O   0  0  0  0  0  0  0  0  0  0  0  0
  -25.9724  -30.2198  -16.8550 C   0  0  0  0  0  0  0  0  0  0  0  0
  -25.3841  -28.8510  -17.1253 C   0  0  0  0  0  0  0  0  0  0  0  0
  -24.8974  -31.0801  -16.1715 C   0  0  0  0  0  0  0  0  0  0  0  0
  -27.2258  -30.1854  -15.9655 C   0  0  0  0  0  0  0  0  0  0  0  0
  -28.5049  -29.7767  -16.6829 C   0  0  0  0  0  0  0  0  0  0  0  0
  2  1  1  6
  2  3  1  0
  2  4  1  0
  4  5  1  0
  5  6  1  0
  6  7  2  0
  6  8  1  0
  8  9  1  0
  9 10  2  0
 10 11  1  0
 11 12  2  0
 12 13  1  0
 13 14  2  0
 14 15  1  0
 15 16  1  0
 16 17  1  0
 16 18  1  0
 16 19  1  0
 19 20  1  0
 14  9  1  0
 20 13  1  0
M  END
>  <HIPPO Pose ID>  (281) 
114721

>  <fragmenstein_outcome>  (281) 
acceptable

>  <energy_score>  (281) 
-25.978202

>  <distance_score>  (281) 
0.77861

>  <fragmenstein_mode>  (281) 
expansion

>  <HIPPO Compound ID>  (281) 
53809

>  <name>  (281) 
UKWFLRZSMSDWTC-SNVBAGLBSA-N

>  <ref_pdb>  (281) 
z0211a

>  <ref_mols>  (281) 
z0211a,z0991a

>  <csv_name>  (281) 
RdRp_knitwork_green_site_rna_tunnel_pure_split4000_batch016.csv

>  <fragmenstein_runtime>  (281) 
6.260428

>  <tags>  (281) 
['Fragmenstein placed']

>  <original ID>  (281) 
UKWFLRZSMSDWTC-SNVBAGLBSA-N

>  <fragmenstein_error>  (281) 
None

>  <original SMILES>  (281) 
C[C@@H](O)CNC(=O)Nc1cccc2c1OC(C)(C)CC2

>  <inchikey>  (281) 
UKWFLRZSMSDWTC-SNVBAGLBSA-N

>  <SLURM_JOB_NAME>  (281) 
BulkDock.place:Flavi_NS5_RdRp:RdRp_knitwork_green_site_rna_tunnel_pure_split4000_batch016

>  <scratch_subdir>  (281) 
/opt/xchem-fragalysis-2/maxwin/BulkDock/SCRATCH/217087/C53809-P102

>  <alias>  (281) 
None

>  <SLURM_JOB_ID>  (281) 
217087

>  <exports>  (281) 
['/opt/xchem-fragalysis-2/maxwin/BulkDock/OUTPUTS/RdRp_knitwork_green_site_rna_tunnel_pure_split4000_batch016_217087.sdf']

$$$$
114763
     RDKit          3D

 19 20  0  0  0  0  0  0  0  0999 V2000
  -21.2263  -32.9391  -23.7179 C   0  0  0  0  0  0  0  0  0  0  0  0
  -22.0572  -32.4047  -22.5632 C   0  0  1  0  0  0  0  0  0  0  0  0
  -21.3625  -31.3045  -21.9879 O   0  0  0  0  0  0  0  0  0  0  0  0
  -23.4502  -32.0048  -23.0403 C   0  0  0  0  0  0  0  0  0  0  0  0
  -24.2934  -31.4483  -22.0142 N   0  0  0  0  0  0  0  0  0  0  0  0
  -25.6967  -30.7968  -22.1123 C   0  0  0  0  0  0  0  0  0  0  0  0
  -26.3303  -30.5499  -23.0254 O   0  0  0  0  0  0  0  0  0  0  0  0
  -26.0286  -30.6736  -20.5940 N   0  0  0  0  0  0  0  0  0  0  0  0
  -27.2147  -30.3180  -19.9570 C   0  0  0  0  0  0  0  0  0  0  0  0
  -28.3820  -30.2115  -20.7113 C   0  0  0  0  0  0  0  0  0  0  0  0
  -29.5976  -30.0366  -20.0748 C   0  0  0  0  0  0  0  0  0  0  0  0
  -30.7256  -29.9972  -20.7954 F   0  0  0  0  0  0  0  0  0  0  0  0
  -29.6639  -29.9212  -18.6952 C   0  0  0  0  0  0  0  0  0  0  0  0
  -28.4924  -29.9276  -17.9315 C   0  0  0  0  0  0  0  0  0  0  0  0
  -27.2610  -30.1292  -18.5709 C   0  0  0  0  0  0  0  0  0  0  0  0
  -26.0795  -30.2208  -17.8856 O   0  0  0  0  0  0  0  0  0  0  0  0
  -26.0983  -29.6466  -16.5807 C   0  0  0  0  0  0  0  0  0  0  0  0
  -27.2871  -30.0907  -15.7491 C   0  0  0  0  0  0  0  0  0  0  0  0
  -28.5907  -29.7460  -16.4479 C   0  0  0  0  0  0  0  0  0  0  0  0
  2  1  1  6
  2  3  1  0
  2  4  1  0
  4  5  1  0
  5  6  1  0
  6  7  2  0
  6  8  1  0
  8  9  1  0
  9 10  2  0
 10 11  1  0
 11 12  1  0
 11 13  2  0
 13 14  1  0
 14 15  2  0
 15 16  1  0
 16 17  1  0
 17 18  1  0
 18 19  1  0
 15  9  1  0
 19 14  1  0
M  END
>  <HIPPO Pose ID>  (282) 
114763

>  <fragmenstein_outcome>  (282) 
acceptable

>  <energy_score>  (282) 
-24.579026

>  <distance_score>  (282) 
0.684538

>  <fragmenstein_mode>  (282) 
expansion

>  <HIPPO Compound ID>  (282) 
53914

>  <name>  (282) 
CEUYKVBMQATWPX-MRVPVSSYSA-N

>  <ref_pdb>  (282) 
z0211a

>  <ref_mols>  (282) 
z0211a,z0991a

>  <csv_name>  (282) 
RdRp_knitwork_green_site_rna_tunnel_pure_split4000_batch016.csv

>  <fragmenstein_runtime>  (282) 
2.279722

>  <tags>  (282) 
['Fragmenstein placed']

>  <original ID>  (282) 
CEUYKVBMQATWPX-MRVPVSSYSA-N

>  <fragmenstein_error>  (282) 
None

>  <original SMILES>  (282) 
C[C@@H](O)CNC(=O)Nc1cc(F)cc2c1OCCC2

>  <inchikey>  (282) 
CEUYKVBMQATWPX-MRVPVSSYSA-N

>  <SLURM_JOB_NAME>  (282) 
BulkDock.place:Flavi_NS5_RdRp:RdRp_knitwork_green_site_rna_tunnel_pure_split4000_batch016

>  <scratch_subdir>  (282) 
/opt/xchem-fragalysis-2/maxwin/BulkDock/SCRATCH/217087/C53914-P102

>  <alias>  (282) 
None

>  <SLURM_JOB_ID>  (282) 
217087

>  <exports>  (282) 
['/opt/xchem-fragalysis-2/maxwin/BulkDock/OUTPUTS/RdRp_knitwork_green_site_rna_tunnel_pure_split4000_batch016_217087.sdf']

$$$$
115409
     RDKit          3D

 11 11  0  0  0  0  0  0  0  0999 V2000
  -25.3532  -33.2037  -19.2206 C   0  0  0  0  0  0  0  0  0  0  0  0
  -26.5586  -32.7451  -20.0260 C   0  0  0  0  0  0  0  0  0  0  0  0
  -26.2314  -31.5635  -20.9040 C   0  0  0  0  0  0  0  0  0  0  0  0
  -26.1220  -31.6334  -22.0638 O   0  0  0  0  0  0  0  0  0  0  0  0
  -26.0523  -30.3548  -19.9485 N   0  0  0  0  0  0  0  0  0  0  0  0
  -25.6318  -29.0764  -20.2013 C   0  0  0  0  0  0  0  0  0  0  0  0
  -25.2180  -28.7032  -21.4674 C   0  0  0  0  0  0  0  0  0  0  0  0
  -24.6808  -27.4340  -21.6396 C   0  0  0  0  0  0  0  0  0  0  0  0
  -24.6375  -26.5693  -20.5593 C   0  0  0  0  0  0  0  0  0  0  0  0
  -25.1220  -27.0157  -19.3416 C   0  0  0  0  0  0  0  0  0  0  0  0
  -25.6021  -28.2574  -19.1346 N   0  0  0  0  0  0  0  0  0  0  0  0
  1  2  1  0
  2  3  1  0
  3  4  2  0
  3  5  1  0
  5  6  1  0
  6  7  2  0
  7  8  1  0
  8  9  2  0
  9 10  1  0
 10 11  2  0
 11  6  1  0
M  END
>  <HIPPO Pose ID>  (283) 
115409

>  <fragmenstein_outcome>  (283) 
acceptable

>  <energy_score>  (283) 
-7.491112

>  <distance_score>  (283) 
0.786783

>  <fragmenstein_mode>  (283) 
expansion

>  <HIPPO Compound ID>  (283) 
34580

>  <name>  (283) 
DCGZZKDVNPMJHZ-UHFFFAOYSA-N

>  <ref_pdb>  (283) 
d0472b

>  <ref_mols>  (283) 
d0472b,z0384a

>  <csv_name>  (283) 
RdRp_knitwork_green_site_rna_tunnel_pure_split4000_batch004.csv

>  <fragmenstein_runtime>  (283) 
1.672874

>  <tags>  (283) 
['Fragmenstein placed']

>  <original ID>  (283) 
DCGZZKDVNPMJHZ-UHFFFAOYSA-N

>  <fragmenstein_error>  (283) 
None

>  <original SMILES>  (283) 
CCC(=O)Nc1ccccn1

>  <inchikey>  (283) 
DCGZZKDVNPMJHZ-UHFFFAOYSA-N

>  <SLURM_JOB_NAME>  (283) 
BulkDock.place:Flavi_NS5_RdRp:RdRp_knitwork_green_site_rna_tunnel_pure_split4000_batch004

>  <scratch_subdir>  (283) 
/opt/xchem-fragalysis-2/maxwin/BulkDock/SCRATCH/217075/C34580-P41

>  <alias>  (283) 
None

>  <SLURM_JOB_ID>  (283) 
217075

>  <exports>  (283) 
['/opt/xchem-fragalysis-2/maxwin/BulkDock/OUTPUTS/RdRp_knitwork_green_site_rna_tunnel_pure_split4000_batch004_217075.sdf']

$$$$
116174
     RDKit          3D

 15 16  0  0  0  0  0  0  0  0999 V2000
  -26.7313  -30.7119  -17.5185 C   0  0  0  0  0  0  0  0  0  0  0  0
  -27.1703  -29.2822  -17.7864 C   0  0  0  0  0  0  0  0  0  0  0  0
  -26.7604  -28.7337  -19.0746 N   0  0  0  0  0  0  0  0  0  0  0  0
  -27.3128  -29.3337  -20.3113 C   0  0  1  0  0  0  0  0  0  0  0  0
  -28.8128  -29.1190  -20.5666 C   0  0  0  0  0  0  0  0  0  0  0  0
  -29.7473  -30.1572  -19.9859 C   0  0  0  0  0  0  0  0  0  0  0  0
  -30.0057  -30.0337  -18.5729 O   0  0  0  0  0  0  0  0  0  0  0  0
  -30.0947  -31.2310  -17.8170 C   0  0  0  0  0  0  0  0  0  0  0  0
  -31.0095  -30.4066  -20.7727 C   0  0  0  0  0  0  0  0  0  0  0  0
  -29.9479  -31.4653  -20.6965 C   0  0  0  0  0  0  0  0  0  0  0  0
  -26.5429  -28.6954  -21.4777 C   0  0  0  0  0  0  0  0  0  0  0  0
  -25.9944  -27.4197  -21.5327 C   0  0  0  0  0  0  0  0  0  0  0  0
  -25.1480  -27.1876  -23.0070 S   0  0  0  0  0  0  0  0  0  0  0  0
  -25.6298  -28.7569  -23.5004 C   0  0  0  0  0  0  0  0  0  0  0  0
  -26.3494  -29.4448  -22.6365 N   0  0  0  0  0  0  0  0  0  0  0  0
  1  2  1  0
  2  3  1  0
  3  4  1  0
  4  5  1  6
  5  6  1  0
  6  7  1  0
  7  8  1  0
  6  9  1  0
  9 10  1  0
  4 11  1  0
 11 12  2  0
 12 13  1  0
 13 14  1  0
 14 15  2  0
 10  6  1  0
 15 11  1  0
M  END
>  <HIPPO Pose ID>  (284) 
116174

>  <fragmenstein_outcome>  (284) 
acceptable

>  <energy_score>  (284) 
-92.572172

>  <distance_score>  (284) 
0.913309

>  <fragmenstein_mode>  (284) 
expansion

>  <HIPPO Compound ID>  (284) 
52556

>  <name>  (284) 
NFXUVUAEFJDJFT-VIFPVBQESA-N

>  <ref_pdb>  (284) 
z0496a

>  <ref_mols>  (284) 
z0496a,z0521a

>  <csv_name>  (284) 
RdRp_knitwork_green_site_rna_tunnel_pure_split4000_batch005.csv

>  <fragmenstein_runtime>  (284) 
3.648308

>  <tags>  (284) 
['Fragmenstein placed']

>  <original ID>  (284) 
NFXUVUAEFJDJFT-VIFPVBQESA-N

>  <fragmenstein_error>  (284) 
None

>  <original SMILES>  (284) 
CCN[C@@H](CC1(OC)CC1)c1cscn1

>  <inchikey>  (284) 
NFXUVUAEFJDJFT-VIFPVBQESA-N

>  <SLURM_JOB_NAME>  (284) 
BulkDock.place:Flavi_NS5_RdRp:RdRp_knitwork_green_site_rna_tunnel_pure_split4000_batch005

>  <scratch_subdir>  (284) 
/opt/xchem-fragalysis-2/maxwin/BulkDock/SCRATCH/217076/C52556-P136

>  <alias>  (284) 
None

>  <SLURM_JOB_ID>  (284) 
217076

>  <exports>  (284) 
['/opt/xchem-fragalysis-2/maxwin/BulkDock/OUTPUTS/RdRp_knitwork_green_site_rna_tunnel_pure_split4000_batch005_217076.sdf']

$$$$
116285
     RDKit          3D

 22 24  0  0  0  0  0  0  0  0999 V2000
  -30.4571  -32.5221  -15.8424 O   0  0  0  0  0  0  0  0  0  0  0  0
  -29.3026  -32.6200  -15.6294 C   0  0  0  0  0  0  0  0  0  0  0  0
  -28.6890  -33.7146  -14.7585 C   0  0  0  0  0  0  0  0  0  0  0  0
  -29.6202  -34.1762  -13.6367 C   0  0  0  0  0  0  0  0  0  0  0  0
  -29.4423  -33.3608  -12.3916 C   0  0  0  0  0  0  0  0  0  0  0  0
  -28.6432  -33.6078  -11.2903 C   0  0  0  0  0  0  0  0  0  0  0  0
  -28.6600  -32.6409  -10.3030 N   0  0  0  0  0  0  0  0  0  0  0  0
  -29.4858  -31.6838  -10.6591 C   0  0  0  0  0  0  0  0  0  0  0  0
  -30.2949  -31.8929  -12.1540 S   0  0  0  0  0  0  0  0  0  0  0  0
  -28.1223  -31.8241  -16.1892 N   0  0  0  0  0  0  0  0  0  0  0  0
  -27.8010  -30.5672  -15.2883 C   0  0  0  0  0  0  0  0  0  0  0  0
  -26.2927  -30.2870  -15.2213 C   0  0  0  0  0  0  0  0  0  0  0  0
  -25.7310  -30.1238  -16.6138 C   0  0  0  0  0  0  0  0  0  0  0  0
  -26.8975  -30.0181  -17.5459 C   0  0  0  0  0  0  0  0  0  0  0  0
  -26.8240  -29.2027  -18.6781 C   0  0  0  0  0  0  0  0  0  0  0  0
  -27.8773  -29.1751  -19.5799 C   0  0  0  0  0  0  0  0  0  0  0  0
  -29.0178  -29.9510  -19.3391 C   0  0  0  0  0  0  0  0  0  0  0  0
  -30.0525  -29.9921  -20.3786 N   0  0  0  0  0  4  0  0  0  0  0  0
  -31.1170  -30.5653  -20.1304 O   0  0  0  0  0  0  0  0  0  0  0  0
  -29.7752  -29.4578  -21.4628 O   0  0  0  0  0  1  0  0  0  0  0  0
  -29.1345  -30.7243  -18.1741 C   0  0  0  0  0  0  0  0  0  0  0  0
  -28.0763  -30.7564  -17.2466 C   0  0  0  0  0  0  0  0  0  0  0  0
  1  2  2  0
  2  3  1  0
  3  4  1  0
  4  5  1  0
  5  6  2  0
  6  7  1  0
  7  8  2  0
  8  9  1  0
  2 10  1  0
 10 11  1  0
 11 12  1  0
 12 13  1  0
 13 14  1  0
 14 15  2  0
 15 16  1  0
 16 17  2  0
 17 18  1  0
 18 19  2  0
 18 20  1  0
 17 21  1  0
 21 22  2  0
  9  5  1  0
 22 10  1  0
 22 14  1  0
M  CHG  2  18   1  20  -1
M  END
>  <HIPPO Pose ID>  (285) 
116285

>  <fragmenstein_outcome>  (285) 
acceptable

>  <energy_score>  (285) 
-52.856071

>  <distance_score>  (285) 
0.893072

>  <fragmenstein_mode>  (285) 
expansion

>  <HIPPO Compound ID>  (285) 
38801

>  <name>  (285) 
GKXFXXUVSGNTDT-UHFFFAOYSA-N

>  <ref_pdb>  (285) 
z0496a

>  <ref_mols>  (285) 
z0904a,z0496a

>  <csv_name>  (285) 
RdRp_knitwork_green_site_rna_tunnel_pure_split4000_batch015.csv

>  <fragmenstein_runtime>  (285) 
3.443443

>  <tags>  (285) 
['Fragmenstein placed']

>  <original ID>  (285) 
GKXFXXUVSGNTDT-UHFFFAOYSA-N

>  <fragmenstein_error>  (285) 
None

>  <original SMILES>  (285) 
O=C(CCc1cncs1)N1CCCc2ccc([N+](=O)[O-])cc21

>  <inchikey>  (285) 
GKXFXXUVSGNTDT-UHFFFAOYSA-N

>  <SLURM_JOB_NAME>  (285) 
BulkDock.place:Flavi_NS5_RdRp:RdRp_knitwork_green_site_rna_tunnel_pure_split4000_batch015

>  <scratch_subdir>  (285) 
/opt/xchem-fragalysis-2/maxwin/BulkDock/SCRATCH/217086/C38801-P136

>  <alias>  (285) 
None

>  <SLURM_JOB_ID>  (285) 
217086

>  <exports>  (285) 
['/opt/xchem-fragalysis-2/maxwin/BulkDock/OUTPUTS/RdRp_knitwork_green_site_rna_tunnel_pure_split4000_batch015_217086.sdf']

$$$$
116453
     RDKit          3D

 22 24  0  0  0  0  0  0  0  0999 V2000
  -29.4814  -30.8089  -15.4287 C   0  0  0  0  0  0  0  0  0  0  0  0
  -28.6673  -30.0867  -16.4847 C   0  0  1  0  0  0  0  0  0  0  0  0
  -27.2054  -30.4791  -16.4925 C   0  0  0  0  0  0  0  0  0  0  0  0
  -26.7085  -29.5247  -17.5327 C   0  0  0  0  0  0  0  0  0  0  0  0
  -25.6166  -28.6938  -17.2745 C   0  0  0  0  0  0  0  0  0  0  0  0
  -25.3089  -27.6821  -18.1743 C   0  0  0  0  0  0  0  0  0  0  0  0
  -26.0950  -27.4923  -19.3089 C   0  0  0  0  0  0  0  0  0  0  0  0
  -27.1721  -28.3420  -19.5862 C   0  0  0  0  0  0  0  0  0  0  0  0
  -27.5041  -29.3805  -18.7092 C   0  0  0  0  0  0  0  0  0  0  0  0
  -28.3158  -30.6158  -19.1891 N   0  0  0  0  0  0  0  0  0  0  0  0
  -28.6055  -30.5416  -20.7087 C   0  0  0  0  0  0  0  0  0  0  0  0
  -29.5218  -30.0659  -21.2917 O   0  0  0  0  0  0  0  0  0  0  0  0
  -27.3636  -31.1404  -21.4731 C   0  0  0  0  0  0  0  0  0  0  0  0
  -26.6628  -30.0562  -21.9464 F   0  0  0  0  0  0  0  0  0  0  0  0
  -26.4887  -31.7199  -20.5929 F   0  0  0  0  0  0  0  0  0  0  0  0
  -27.6357  -32.0578  -22.6589 C   0  0  0  0  0  0  0  0  0  0  0  0
  -26.9237  -33.2485  -22.8599 C   0  0  0  0  0  0  0  0  0  0  0  0
  -27.1099  -34.0649  -23.9709 C   0  0  0  0  0  0  0  0  0  0  0  0
  -27.9615  -33.6144  -24.9412 C   0  0  0  0  0  0  0  0  0  0  0  0
  -28.5651  -32.4120  -24.8692 N   0  0  0  0  0  0  0  0  0  0  0  0
  -28.4278  -31.6848  -23.7220 C   0  0  0  0  0  0  0  0  0  0  0  0
  -29.2056  -30.1742  -17.9415 C   0  0  0  0  0  0  0  0  0  0  0  0
  2  1  1  1
  2  3  1  0
  3  4  1  0
  4  5  2  0
  5  6  1  0
  6  7  2  0
  7  8  1  0
  8  9  2  0
  9 10  1  0
 10 11  1  0
 11 12  2  0
 11 13  1  0
 13 14  1  0
 13 15  1  0
 13 16  1  0
 16 17  2  0
 17 18  1  0
 18 19  2  0
 19 20  1  0
 20 21  2  0
 10 22  1  0
 22  2  1  0
  9  4  1  0
 21 16  1  0
M  END
>  <HIPPO Pose ID>  (286) 
116453

>  <fragmenstein_outcome>  (286) 
acceptable

>  <energy_score>  (286) 
-50.328065

>  <distance_score>  (286) 
0.920681

>  <fragmenstein_mode>  (286) 
expansion

>  <HIPPO Compound ID>  (286) 
35325

>  <name>  (286) 
BKPYKPCPVVPRDZ-LBPRGKRZSA-N

>  <ref_pdb>  (286) 
z0165a

>  <ref_mols>  (286) 
z0165a,d0472b

>  <csv_name>  (286) 
RdRp_knitwork_green_site_rna_tunnel_pure_split4000_batch012.csv

>  <fragmenstein_runtime>  (286) 
5.540764

>  <tags>  (286) 
['Fragmenstein placed']

>  <original ID>  (286) 
BKPYKPCPVVPRDZ-LBPRGKRZSA-N

>  <fragmenstein_error>  (286) 
None

>  <original SMILES>  (286) 
C[C@H]1Cc2ccccc2N(C(=O)C(F)(F)c2cccnc2)C1

>  <inchikey>  (286) 
BKPYKPCPVVPRDZ-LBPRGKRZSA-N

>  <SLURM_JOB_NAME>  (286) 
BulkDock.place:Flavi_NS5_RdRp:RdRp_knitwork_green_site_rna_tunnel_pure_split4000_batch012

>  <scratch_subdir>  (286) 
/opt/xchem-fragalysis-2/maxwin/BulkDock/SCRATCH/217083/C35325-P3

>  <alias>  (286) 
None

>  <SLURM_JOB_ID>  (286) 
217083

>  <exports>  (286) 
['/opt/xchem-fragalysis-2/maxwin/BulkDock/OUTPUTS/RdRp_knitwork_green_site_rna_tunnel_pure_split4000_batch012_217083.sdf']

$$$$
116747
     RDKit          3D

 14 15  0  0  0  0  0  0  0  0999 V2000
  -26.5372  -30.2853  -17.1426 C   0  0  0  0  0  0  0  0  0  0  0  0
  -26.9375  -29.2390  -18.1719 C   0  0  0  0  0  0  0  0  0  0  0  0
  -27.2855  -29.8561  -19.4410 N   0  0  0  0  0  0  0  0  0  0  0  0
  -27.8608  -28.9346  -20.4319 C   0  0  2  0  0  0  0  0  0  0  0  0
  -29.0379  -29.5919  -21.1947 C   0  0  0  0  0  0  0  0  0  0  0  0
  -29.7817  -30.6478  -20.4185 C   0  0  2  0  0  0  0  0  0  0  0  0
  -31.2613  -30.5140  -20.1953 C   0  0  0  0  0  0  0  0  0  0  0  0
  -30.3188  -30.3859  -19.0304 C   0  0  1  0  0  0  0  0  0  0  0  0
  -30.2538  -31.4539  -17.9961 C   0  0  0  0  0  0  0  0  0  0  0  0
  -26.7791  -28.4386  -21.3763 C   0  0  0  0  0  0  0  0  0  0  0  0
  -26.0898  -27.2400  -21.2797 C   0  0  0  0  0  0  0  0  0  0  0  0
  -25.0822  -27.0105  -22.6518 S   0  0  0  0  0  0  0  0  0  0  0  0
  -25.5516  -28.5532  -23.2304 C   0  0  0  0  0  0  0  0  0  0  0  0
  -26.4171  -29.2080  -22.4836 N   0  0  0  0  0  0  0  0  0  0  0  0
  1  2  1  0
  2  3  1  0
  3  4  1  0
  4  5  1  6
  6  5  1  6
  6  7  1  0
  7  8  1  0
  8  9  1  1
  4 10  1  0
 10 11  2  0
 11 12  1  0
 12 13  1  0
 13 14  2  0
  8  6  1  0
 14 10  1  0
M  END
>  <HIPPO Pose ID>  (287) 
116747

>  <fragmenstein_outcome>  (287) 
acceptable

>  <energy_score>  (287) 
-64.74616

>  <distance_score>  (287) 
0.990014

>  <fragmenstein_mode>  (287) 
expansion

>  <HIPPO Compound ID>  (287) 
53235

>  <name>  (287) 
DVZOEFZQIKJCIY-KXUCPTDWSA-N

>  <ref_pdb>  (287) 
z0496a

>  <ref_mols>  (287) 
z0496a,z0521a

>  <csv_name>  (287) 
RdRp_knitwork_green_site_rna_tunnel_pure_split4000_batch005.csv

>  <fragmenstein_runtime>  (287) 
1.328145

>  <tags>  (287) 
['Fragmenstein placed']

>  <original ID>  (287) 
DVZOEFZQIKJCIY-KXUCPTDWSA-N

>  <fragmenstein_error>  (287) 
None

>  <original SMILES>  (287) 
CCN[C@H](C[C@@H]1C[C@H]1C)c1cscn1

>  <inchikey>  (287) 
DVZOEFZQIKJCIY-KXUCPTDWSA-N

>  <SLURM_JOB_NAME>  (287) 
BulkDock.place:Flavi_NS5_RdRp:RdRp_knitwork_green_site_rna_tunnel_pure_split4000_batch005

>  <scratch_subdir>  (287) 
/opt/xchem-fragalysis-2/maxwin/BulkDock/SCRATCH/217076/C53235-P136

>  <alias>  (287) 
None

>  <SLURM_JOB_ID>  (287) 
217076

>  <exports>  (287) 
['/opt/xchem-fragalysis-2/maxwin/BulkDock/OUTPUTS/RdRp_knitwork_green_site_rna_tunnel_pure_split4000_batch005_217076.sdf']

$$$$
116827
     RDKit          3D

 23 25  0  0  0  0  0  0  0  0999 V2000
  -27.0609  -32.1201  -17.0949 O   0  0  0  0  0  0  0  0  0  0  0  0
  -27.1630  -31.9458  -18.2608 C   0  0  0  0  0  0  0  0  0  0  0  0
  -27.9633  -31.0564  -18.9878 N   0  0  0  0  0  0  0  0  0  0  0  0
  -28.8381  -30.0026  -18.5527 C   0  0  1  0  0  0  0  0  0  0  0  0
  -28.6395  -28.8574  -19.5162 C   0  0  0  0  0  0  0  0  0  0  0  0
  -28.0560  -27.6524  -18.7634 C   0  0  0  0  0  0  0  0  0  0  0  0
  -26.7409  -27.8201  -19.4165 C   0  0  0  0  0  0  0  0  0  0  0  0
  -27.3488  -28.9075  -20.2993 C   0  0  0  0  0  0  0  0  0  0  0  0
  -30.2322  -29.9684  -17.9679 C   0  0  0  0  0  0  0  0  0  0  0  0
  -30.6636  -31.1899  -17.6168 F   0  0  0  0  0  0  0  0  0  0  0  0
  -31.0839  -29.3786  -18.8322 F   0  0  0  0  0  0  0  0  0  0  0  0
  -30.2904  -29.1756  -16.8752 F   0  0  0  0  0  0  0  0  0  0  0  0
  -26.2407  -32.6891  -19.1793 C   0  0  0  0  0  0  0  0  0  0  0  0
  -25.0780  -33.3105  -18.6457 C   0  0  0  0  0  0  0  0  0  0  0  0
  -24.2731  -32.1829  -18.4993 C   0  0  0  0  0  0  0  0  0  0  0  0
  -24.8049  -31.2323  -19.3679 N   0  0  0  0  0  0  0  0  0  0  0  0
  -24.4299  -29.8817  -19.5966 C   0  0  0  0  0  0  0  0  0  0  0  0
  -24.6880  -29.2897  -20.8598 C   0  0  0  0  0  0  0  0  0  0  0  0
  -24.2990  -27.9816  -21.1254 C   0  0  0  0  0  0  0  0  0  0  0  0
  -23.6290  -27.3240  -20.1189 C   0  0  0  0  0  0  0  0  0  0  0  0
  -23.3496  -27.8540  -18.8926 N   0  0  0  0  0  0  0  0  0  0  0  0
  -23.7348  -29.1370  -18.6575 C   0  0  0  0  0  0  0  0  0  0  0  0
  -25.7339  -31.8927  -20.1572 N   0  0  0  0  0  0  0  0  0  0  0  0
  1  2  2  0
  2  3  1  0
  4  3  1  6
  4  5  1  0
  5  6  1  0
  6  7  1  0
  7  8  1  0
  4  9  1  0
  9 10  1  0
  9 11  1  0
  9 12  1  0
  2 13  1  0
 13 14  1  0
 14 15  2  0
 15 16  1  0
 16 17  1  0
 17 18  2  0
 18 19  1  0
 19 20  2  0
 20 21  1  0
 21 22  2  0
 16 23  1  0
  8  5  1  0
 23 13  2  0
 22 17  1  0
M  END
>  <HIPPO Pose ID>  (288) 
116827

>  <fragmenstein_outcome>  (288) 
acceptable

>  <energy_score>  (288) 
72.510568

>  <distance_score>  (288) 
1.90107

>  <fragmenstein_mode>  (288) 
expansion

>  <HIPPO Compound ID>  (288) 
22577

>  <name>  (288) 
SBYDBNNEHVYDJX-ZDUSSCGKSA-N

>  <ref_pdb>  (288) 
d0472b

>  <ref_mols>  (288) 
d0472b,z0215a,z0653a

>  <csv_name>  (288) 
RdRp_knitwork_green_site_rna_tunnel_pure_split4000_batch003.csv

>  <fragmenstein_runtime>  (288) 
13.287217

>  <tags>  (288) 
['Fragmenstein placed']

>  <original ID>  (288) 
SBYDBNNEHVYDJX-ZDUSSCGKSA-N

>  <fragmenstein_error>  (288) 
None

>  <original SMILES>  (288) 
O=C(N[C@@H](C1CCC1)C(F)(F)F)c1ccn(-c2cccnc2)n1

>  <inchikey>  (288) 
SBYDBNNEHVYDJX-ZDUSSCGKSA-N

>  <SLURM_JOB_NAME>  (288) 
BulkDock.place:Flavi_NS5_RdRp:RdRp_knitwork_green_site_rna_tunnel_pure_split4000_batch003

>  <scratch_subdir>  (288) 
/opt/xchem-fragalysis-2/maxwin/BulkDock/SCRATCH/217074/C22577-P41

>  <alias>  (288) 
None

>  <SLURM_JOB_ID>  (288) 
217074

>  <exports>  (288) 
['/opt/xchem-fragalysis-2/maxwin/BulkDock/OUTPUTS/RdRp_knitwork_green_site_rna_tunnel_pure_split4000_batch003_217074.sdf']

$$$$
117289
     RDKit          3D

 16 18  0  0  0  0  0  0  0  0999 V2000
  -28.0194  -30.3341  -20.0764 C   0  0  0  0  0  0  0  0  0  0  0  0
  -29.0856  -30.0725  -19.2205 C   0  0  0  0  0  0  0  0  0  0  0  0
  -28.9197  -30.2009  -17.8483 C   0  0  0  0  0  0  0  0  0  0  0  0
  -27.6657  -30.5328  -17.3153 C   0  0  0  0  0  0  0  0  0  0  0  0
  -26.6171  -30.8769  -18.1834 C   0  0  0  0  0  0  0  0  0  0  0  0
  -26.7961  -30.7602  -19.5640 C   0  0  0  0  0  0  0  0  0  0  0  0
  -25.2782  -31.2492  -17.6106 C   0  0  0  0  0  0  0  0  0  0  0  0
  -25.4858  -31.8812  -16.2445 C   0  0  0  0  0  0  0  0  0  0  0  0
  -26.2243  -30.9238  -15.3295 C   0  0  0  0  0  0  0  0  0  0  0  0
  -27.4234  -30.3011  -15.9455 N   0  0  0  0  0  0  0  0  0  0  0  0
  -27.4278  -28.8334  -15.7375 C   0  0  0  0  0  0  0  0  0  0  0  0
  -26.4379  -28.0157  -16.5354 C   0  0  0  0  0  0  0  0  0  0  0  0
  -25.2518  -27.5848  -16.1422 N   0  0  0  0  0  0  0  0  0  0  0  0
  -24.7016  -26.9751  -17.2389 C   0  0  0  0  0  0  0  0  0  0  0  0
  -25.5716  -26.9887  -18.2989 C   0  0  0  0  0  0  0  0  0  0  0  0
  -26.6783  -27.6420  -17.8409 N   0  0  0  0  0  0  0  0  0  0  0  0
  1  2  2  0
  2  3  1  0
  3  4  2  0
  4  5  1  0
  5  6  2  0
  5  7  1  0
  7  8  1  0
  8  9  1  0
  9 10  1  0
 10 11  1  0
 11 12  1  0
 12 13  2  0
 13 14  1  0
 14 15  2  0
 15 16  1  0
  6  1  1  0
 16 12  1  0
 10  4  1  0
M  END
>  <HIPPO Pose ID>  (289) 
117289

>  <fragmenstein_outcome>  (289) 
acceptable

>  <energy_score>  (289) 
-44.613281

>  <distance_score>  (289) 
0.996127

>  <fragmenstein_mode>  (289) 
expansion

>  <HIPPO Compound ID>  (289) 
39544

>  <name>  (289) 
ZNOBRDACFNMCNF-UHFFFAOYSA-N

>  <ref_pdb>  (289) 
d0378a

>  <ref_mols>  (289) 
d0378a,z0904a

>  <csv_name>  (289) 
RdRp_knitwork_green_site_rna_tunnel_pure_split4000_batch011.csv

>  <fragmenstein_runtime>  (289) 
2.428127

>  <tags>  (289) 
['Fragmenstein placed']

>  <original ID>  (289) 
ZNOBRDACFNMCNF-UHFFFAOYSA-N

>  <fragmenstein_error>  (289) 
None

>  <original SMILES>  (289) 
c1ccc2c(c1)CCCN2Cc1ncc[nH]1

>  <inchikey>  (289) 
ZNOBRDACFNMCNF-UHFFFAOYSA-N

>  <SLURM_JOB_NAME>  (289) 
BulkDock.place:Flavi_NS5_RdRp:RdRp_knitwork_green_site_rna_tunnel_pure_split4000_batch011

>  <scratch_subdir>  (289) 
/opt/xchem-fragalysis-2/maxwin/BulkDock/SCRATCH/217082/C39544-P1

>  <alias>  (289) 
None

>  <SLURM_JOB_ID>  (289) 
217082

>  <exports>  (289) 
['/opt/xchem-fragalysis-2/maxwin/BulkDock/OUTPUTS/RdRp_knitwork_green_site_rna_tunnel_pure_split4000_batch011_217082.sdf']

$$$$
117324
     RDKit          3D

 24 26  0  0  0  0  0  0  0  0999 V2000
  -19.6817  -36.4725  -18.7102 C   0  0  0  0  0  0  0  0  0  0  0  0
  -19.3134  -35.1028  -18.8271 O   0  0  0  0  0  0  0  0  0  0  0  0
  -20.0048  -34.3656  -19.7743 C   0  0  0  0  0  0  0  0  0  0  0  0
  -19.5273  -33.0628  -19.9716 C   0  0  0  0  0  0  0  0  0  0  0  0
  -20.1125  -32.2053  -20.9023 C   0  0  0  0  0  0  0  0  0  0  0  0
  -21.1906  -32.6279  -21.6883 C   0  0  0  0  0  0  0  0  0  0  0  0
  -21.7086  -33.9256  -21.5043 C   0  0  0  0  0  0  0  0  0  0  0  0
  -22.7714  -34.6927  -22.0818 C   0  0  0  0  0  0  0  0  0  0  0  0
  -23.7662  -34.2822  -23.1110 C   0  0  0  0  0  0  0  0  0  0  0  0
  -25.0236  -33.7920  -22.3964 C   0  0  0  0  0  0  0  0  0  0  0  0
  -25.9403  -34.4781  -22.1716 O   0  0  0  0  0  0  0  0  0  0  0  0
  -24.7455  -32.3233  -21.9899 N   0  0  0  0  0  0  0  0  0  0  0  0
  -25.5756  -31.3725  -21.3078 C   0  0  0  0  0  0  0  0  0  0  0  0
  -25.8455  -31.7912  -19.8590 C   0  0  1  0  0  0  0  0  0  0  0  0
  -24.6289  -31.6674  -19.1149 O   0  0  0  0  0  0  0  0  0  0  0  0
  -26.9560  -30.9989  -19.2093 C   0  0  0  0  0  0  0  0  0  0  0  0
  -26.7695  -30.3025  -18.0132 C   0  0  0  0  0  0  0  0  0  0  0  0
  -27.8633  -29.7034  -17.4131 C   0  0  0  0  0  0  0  0  0  0  0  0
  -29.1128  -29.7389  -17.9195 N   0  0  0  0  0  0  0  0  0  0  0  0
  -29.2786  -30.4009  -19.0816 C   0  0  0  0  0  0  0  0  0  0  0  0
  -28.2473  -31.0365  -19.7509 C   0  0  0  0  0  0  0  0  0  0  0  0
  -22.7439  -35.9120  -21.4390 C   0  0  0  0  0  0  0  0  0  0  0  0
  -21.7455  -35.9568  -20.5288 O   0  0  0  0  0  0  0  0  0  0  0  0
  -21.1104  -34.7498  -20.5485 C   0  0  0  0  0  0  0  0  0  0  0  0
  1  2  1  0
  2  3  1  0
  3  4  2  0
  4  5  1  0
  5  6  2  0
  6  7  1  0
  7  8  1  0
  8  9  1  0
  9 10  1  0
 10 11  2  0
 10 12  1  0
 12 13  1  0
 13 14  1  0
 14 15  1  1
 14 16  1  0
 16 17  2  0
 17 18  1  0
 18 19  2  0
 19 20  1  0
 20 21  2  0
  8 22  2  0
 22 23  1  0
 23 24  1  0
 24  3  1  0
 24  7  2  0
 21 16  1  0
M  END
>  <HIPPO Pose ID>  (290) 
117324

>  <fragmenstein_outcome>  (290) 
acceptable

>  <energy_score>  (290) 
-52.633495

>  <distance_score>  (290) 
0.910017

>  <fragmenstein_mode>  (290) 
expansion

>  <HIPPO Compound ID>  (290) 
27831

>  <name>  (290) 
AOSCQMBZAWJOQW-OAHLLOKOSA-N

>  <ref_pdb>  (290) 
z0411a

>  <ref_mols>  (290) 
z0411a,3vws-b

>  <csv_name>  (290) 
RdRp_knitwork_green_site_rna_tunnel_pure_split4000_batch016.csv

>  <fragmenstein_runtime>  (290) 
4.566423

>  <tags>  (290) 
['Fragmenstein placed']

>  <original ID>  (290) 
AOSCQMBZAWJOQW-OAHLLOKOSA-N

>  <fragmenstein_error>  (290) 
None

>  <original SMILES>  (290) 
COc1cccc2c(CC(=O)NC[C@@H](O)c3ccncc3)coc12

>  <inchikey>  (290) 
AOSCQMBZAWJOQW-OAHLLOKOSA-N

>  <SLURM_JOB_NAME>  (290) 
BulkDock.place:Flavi_NS5_RdRp:RdRp_knitwork_green_site_rna_tunnel_pure_split4000_batch016

>  <scratch_subdir>  (290) 
/opt/xchem-fragalysis-2/maxwin/BulkDock/SCRATCH/217087/C27831-P123

>  <alias>  (290) 
None

>  <SLURM_JOB_ID>  (290) 
217087

>  <exports>  (290) 
['/opt/xchem-fragalysis-2/maxwin/BulkDock/OUTPUTS/RdRp_knitwork_green_site_rna_tunnel_pure_split4000_batch016_217087.sdf']

$$$$
117328
     RDKit          3D

 24 26  0  0  0  0  0  0  0  0999 V2000
  -19.7386  -35.5059  -18.1457 C   0  0  0  0  0  0  0  0  0  0  0  0
  -19.0681  -35.2260  -19.3754 O   0  0  0  0  0  0  0  0  0  0  0  0
  -19.7789  -34.2794  -20.0780 C   0  0  0  0  0  0  0  0  0  0  0  0
  -19.2339  -32.9989  -20.1828 C   0  0  0  0  0  0  0  0  0  0  0  0
  -19.9046  -32.0005  -20.8830 C   0  0  0  0  0  0  0  0  0  0  0  0
  -21.1247  -32.2683  -21.5214 C   0  0  0  0  0  0  0  0  0  0  0  0
  -21.6777  -33.5682  -21.4726 C   0  0  0  0  0  0  0  0  0  0  0  0
  -22.8365  -34.2318  -22.0098 C   0  0  0  0  0  0  0  0  0  0  0  0
  -23.9276  -33.7087  -22.8931 C   0  0  0  0  0  0  0  0  0  0  0  0
  -23.9973  -32.1850  -22.9283 C   0  0  0  0  0  0  0  0  0  0  0  0
  -23.6202  -31.5614  -23.8396 O   0  0  0  0  0  0  0  0  0  0  0  0
  -24.5330  -31.7247  -21.5512 N   0  0  0  0  0  0  0  0  0  0  0  0
  -24.8040  -30.4016  -21.0468 C   0  0  0  0  0  0  0  0  0  0  0  0
  -25.2312  -30.3828  -19.5735 C   0  0  1  0  0  0  0  0  0  0  0  0
  -24.8334  -29.1568  -18.9638 O   0  0  0  0  0  0  0  0  0  0  0  0
  -26.7159  -30.5195  -19.3779 C   0  0  0  0  0  0  0  0  0  0  0  0
  -27.2338  -31.5780  -18.6307 C   0  0  0  0  0  0  0  0  0  0  0  0
  -28.6043  -31.6556  -18.4584 C   0  0  0  0  0  0  0  0  0  0  0  0
  -29.4757  -30.7610  -18.9560 N   0  0  0  0  0  0  0  0  0  0  0  0
  -28.9628  -29.7446  -19.6679 C   0  0  0  0  0  0  0  0  0  0  0  0
  -27.6105  -29.5794  -19.9015 C   0  0  0  0  0  0  0  0  0  0  0  0
  -22.7438  -35.5385  -21.5656 C   0  0  0  0  0  0  0  0  0  0  0  0
  -21.6366  -35.7236  -20.8089 O   0  0  0  0  0  0  0  0  0  0  0  0
  -20.9811  -34.5344  -20.7490 C   0  0  0  0  0  0  0  0  0  0  0  0
  1  2  1  0
  2  3  1  0
  3  4  2  0
  4  5  1  0
  5  6  2  0
  6  7  1  0
  7  8  1  0
  8  9  1  0
  9 10  1  0
 10 11  2  0
 10 12  1  0
 12 13  1  0
 13 14  1  0
 14 15  1  6
 14 16  1  0
 16 17  2  0
 17 18  1  0
 18 19  2  0
 19 20  1  0
 20 21  2  0
  8 22  2  0
 22 23  1  0
 23 24  1  0
 24  3  1  0
 24  7  2  0
 21 16  1  0
M  END
>  <HIPPO Pose ID>  (291) 
117328

>  <fragmenstein_outcome>  (291) 
acceptable

>  <energy_score>  (291) 
-42.562064

>  <distance_score>  (291) 
0.817305

>  <fragmenstein_mode>  (291) 
expansion

>  <HIPPO Compound ID>  (291) 
27831

>  <name>  (291) 
AOSCQMBZAWJOQW-OAHLLOKOSA-N

>  <ref_pdb>  (291) 
3vws-b

>  <ref_mols>  (291) 
z0411a,3vws-b

>  <csv_name>  (291) 
RdRp_knitwork_green_site_rna_tunnel_pure_split4000_batch016.csv

>  <fragmenstein_runtime>  (291) 
4.313473

>  <tags>  (291) 
['Fragmenstein placed']

>  <original ID>  (291) 
AOSCQMBZAWJOQW-OAHLLOKOSA-N

>  <fragmenstein_error>  (291) 
None

>  <original SMILES>  (291) 
COc1cccc2c(CC(=O)NC[C@@H](O)c3ccncc3)coc12

>  <inchikey>  (291) 
AOSCQMBZAWJOQW-OAHLLOKOSA-N

>  <SLURM_JOB_NAME>  (291) 
BulkDock.place:Flavi_NS5_RdRp:RdRp_knitwork_green_site_rna_tunnel_pure_split4000_batch016

>  <scratch_subdir>  (291) 
/opt/xchem-fragalysis-2/maxwin/BulkDock/SCRATCH/217087/C27831-P217

>  <alias>  (291) 
None

>  <SLURM_JOB_ID>  (291) 
217087

>  <exports>  (291) 
['/opt/xchem-fragalysis-2/maxwin/BulkDock/OUTPUTS/RdRp_knitwork_green_site_rna_tunnel_pure_split4000_batch016_217087.sdf']

$$$$
117872
     RDKit          3D

 19 19  0  0  0  0  0  0  0  0999 V2000
  -25.6150  -30.7805  -22.5123 C   0  0  0  0  0  0  0  0  0  0  0  0
  -26.3174  -31.7980  -21.6456 C   0  0  0  0  0  0  0  0  0  0  0  0
  -26.6065  -31.2773  -20.3493 O   0  0  0  0  0  0  0  0  0  0  0  0
  -27.6173  -30.3911  -20.2117 C   0  0  0  0  0  0  0  0  0  0  0  0
  -28.3302  -29.9616  -21.1042 O   0  0  0  0  0  0  0  0  0  0  0  0
  -27.8172  -30.0809  -18.7818 C   0  0  0  0  0  0  0  0  0  0  0  0
  -29.1194  -29.8433  -18.3516 C   0  0  0  0  0  0  0  0  0  0  0  0
  -29.4676  -29.6082  -17.0596 N   0  0  0  0  0  0  0  0  0  0  0  0
  -28.4652  -29.5912  -16.1639 C   0  0  0  0  0  0  0  0  0  0  0  0
  -27.1370  -29.7950  -16.4964 C   0  0  0  0  0  0  0  0  0  0  0  0
  -26.7882  -30.0273  -17.8311 C   0  0  0  0  0  0  0  0  0  0  0  0
  -25.4402  -30.2671  -18.1578 N   0  0  0  0  0  0  0  0  0  0  0  0
  -24.9606  -31.6162  -17.7399 C   0  0  0  0  0  0  0  0  0  0  0  0
  -23.4231  -31.5957  -17.7368 C   0  0  1  0  0  0  0  0  0  0  0  0
  -22.9214  -31.9147  -19.1522 C   0  0  0  0  0  0  0  0  0  0  0  0
  -23.0849  -30.2609  -17.3041 O   0  0  0  0  0  0  0  0  0  0  0  0
  -22.7766  -32.4872  -16.6722 C   0  0  0  0  0  0  0  0  0  0  0  0
  -22.8066  -33.8658  -16.9733 O   0  0  0  0  0  0  0  0  0  0  0  0
  -21.5826  -34.3763  -17.4715 C   0  0  0  0  0  0  0  0  0  0  0  0
  1  2  1  0
  2  3  1  0
  3  4  1  0
  4  5  2  0
  4  6  1  0
  6  7  2  0
  7  8  1  0
  8  9  2  0
  9 10  1  0
 10 11  2  0
 11 12  1  0
 12 13  1  0
 13 14  1  0
 14 15  1  6
 14 16  1  0
 14 17  1  0
 17 18  1  0
 18 19  1  0
 11  6  1  0
M  END
>  <HIPPO Pose ID>  (292) 
117872

>  <fragmenstein_outcome>  (292) 
acceptable

>  <energy_score>  (292) 
-81.441744

>  <distance_score>  (292) 
0.967583

>  <fragmenstein_mode>  (292) 
expansion

>  <HIPPO Compound ID>  (292) 
37923

>  <name>  (292) 
VDFCXTONXACPCO-CYBMUJFWSA-N

>  <ref_pdb>  (292) 
z0637a

>  <ref_mols>  (292) 
z0628a,z0637a

>  <csv_name>  (292) 
RdRp_knitwork_green_site_rna_tunnel_pure_split4000_batch015.csv

>  <fragmenstein_runtime>  (292) 
3.992747

>  <tags>  (292) 
['Fragmenstein placed']

>  <original ID>  (292) 
VDFCXTONXACPCO-CYBMUJFWSA-N

>  <fragmenstein_error>  (292) 
None

>  <original SMILES>  (292) 
CCOC(=O)c1cnccc1NC[C@@](C)(O)COC

>  <inchikey>  (292) 
VDFCXTONXACPCO-CYBMUJFWSA-N

>  <SLURM_JOB_NAME>  (292) 
BulkDock.place:Flavi_NS5_RdRp:RdRp_knitwork_green_site_rna_tunnel_pure_split4000_batch015

>  <scratch_subdir>  (292) 
/opt/xchem-fragalysis-2/maxwin/BulkDock/SCRATCH/217086/C37923-P151

>  <alias>  (292) 
None

>  <SLURM_JOB_ID>  (292) 
217086

>  <exports>  (292) 
['/opt/xchem-fragalysis-2/maxwin/BulkDock/OUTPUTS/RdRp_knitwork_green_site_rna_tunnel_pure_split4000_batch015_217086.sdf']

$$$$
118720
     RDKit          3D

 10 11  0  0  0  0  0  0  0  0999 V2000
  -25.7386  -28.7297  -23.7264 C   0  0  0  0  0  0  0  0  0  0  0  0
  -26.5521  -29.3247  -22.8782 N   0  0  0  0  0  0  0  0  0  0  0  0
  -26.5851  -28.6131  -21.6925 C   0  0  0  0  0  0  0  0  0  0  0  0
  -27.3964  -29.1302  -20.4586 C   0  0  0  0  0  0  0  0  0  0  0  0
  -27.3217  -28.6095  -19.1854 C   0  0  0  0  0  0  0  0  0  0  0  0
  -28.0585  -29.2684  -18.2171 N   0  0  0  0  0  0  0  0  0  0  0  0
  -28.7282  -30.2465  -18.7877 C   0  0  0  0  0  0  0  0  0  0  0  0
  -28.4793  -30.4524  -20.4711 S   0  0  0  0  0  0  0  0  0  0  0  0
  -25.8340  -27.4519  -21.6853 C   0  0  0  0  0  0  0  0  0  0  0  0
  -25.0296  -27.2617  -23.1920 S   0  0  0  0  0  0  0  0  0  0  0  0
  1  2  2  0
  2  3  1  0
  3  4  1  0
  4  5  2  0
  5  6  1  0
  6  7  2  0
  7  8  1  0
  3  9  2  0
  9 10  1  0
 10  1  1  0
  8  4  1  0
M  END
>  <HIPPO Pose ID>  (293) 
118720

>  <fragmenstein_outcome>  (293) 
acceptable

>  <energy_score>  (293) 
-147.916759

>  <distance_score>  (293) 
0.923112

>  <fragmenstein_mode>  (293) 
expansion

>  <HIPPO Compound ID>  (293) 
8626

>  <name>  (293) 
AQIWYYUUFDZEPS-UHFFFAOYSA-N

>  <ref_pdb>  (293) 
z0496a

>  <ref_mols>  (293) 
z0384a,z0496a

>  <csv_name>  (293) 
RdRp_knitwork_green_site_rna_tunnel_pure_split4000_batch012.csv

>  <fragmenstein_runtime>  (293) 
1.457528

>  <tags>  (293) 
['Fragmenstein placed']

>  <original ID>  (293) 
AQIWYYUUFDZEPS-UHFFFAOYSA-N

>  <fragmenstein_error>  (293) 
None

>  <original SMILES>  (293) 
c1nc(-c2cncs2)cs1

>  <inchikey>  (293) 
AQIWYYUUFDZEPS-UHFFFAOYSA-N

>  <SLURM_JOB_NAME>  (293) 
BulkDock.place:Flavi_NS5_RdRp:RdRp_knitwork_green_site_rna_tunnel_pure_split4000_batch012

>  <scratch_subdir>  (293) 
/opt/xchem-fragalysis-2/maxwin/BulkDock/SCRATCH/217083/C8626-P136

>  <alias>  (293) 
None

>  <SLURM_JOB_ID>  (293) 
217083

>  <exports>  (293) 
['/opt/xchem-fragalysis-2/maxwin/BulkDock/OUTPUTS/RdRp_knitwork_green_site_rna_tunnel_pure_split4000_batch012_217083.sdf']

$$$$
119535
     RDKit          3D

 23 26  0  0  0  0  0  0  0  0999 V2000
  -25.5316  -29.1643  -22.2133 C   0  0  0  0  0  0  0  0  0  0  0  0
  -26.2518  -29.6271  -21.0494 N   0  0  0  0  0  0  0  0  0  0  0  0
  -27.4725  -29.1912  -20.6106 C   0  0  0  0  0  0  0  0  0  0  0  0
  -27.8987  -30.0337  -19.6137 C   0  0  0  0  0  0  0  0  0  0  0  0
  -26.8898  -31.0066  -19.4213 C   0  0  0  0  0  0  0  0  0  0  0  0
  -26.7821  -32.1422  -18.6111 C   0  0  0  0  0  0  0  0  0  0  0  0
  -25.6412  -32.9379  -18.7666 C   0  0  0  0  0  0  0  0  0  0  0  0
  -25.5368  -34.4688  -17.9105 S   0  0  0  0  0  0  0  0  0  0  0  0
  -26.8938  -34.8845  -17.6234 O   0  0  0  0  0  0  0  0  0  0  0  0
  -24.6816  -35.3387  -18.6869 O   0  0  0  0  0  0  0  0  0  0  0  0
  -24.7919  -34.0111  -16.4870 N   0  0  0  0  0  0  0  0  0  0  0  0
  -23.4914  -33.4317  -16.4184 C   0  0  0  0  0  0  0  0  0  0  0  0
  -22.4291  -33.8376  -17.2332 C   0  0  0  0  0  0  0  0  0  0  0  0
  -21.1631  -33.2441  -17.1406 C   0  0  0  0  0  0  0  0  0  0  0  0
  -21.0083  -32.2641  -16.1669 C   0  0  0  0  0  0  0  0  0  0  0  0
  -19.8640  -31.5733  -15.9154 O   0  0  0  0  0  0  0  0  0  0  0  0
  -20.1318  -30.7244  -14.8889 C   0  0  0  0  0  0  0  0  0  0  0  0
  -21.4345  -30.8700  -14.4675 C   0  0  0  0  0  0  0  0  0  0  0  0
  -22.0165  -31.8628  -15.3000 C   0  0  0  0  0  0  0  0  0  0  0  0
  -23.2808  -32.4671  -15.4213 C   0  0  0  0  0  0  0  0  0  0  0  0
  -24.6087  -32.6139  -19.6413 C   0  0  0  0  0  0  0  0  0  0  0  0
  -24.6816  -31.4652  -20.4011 C   0  0  0  0  0  0  0  0  0  0  0  0
  -25.8497  -30.7058  -20.3025 C   0  0  0  0  0  0  0  0  0  0  0  0
  1  2  1  0
  2  3  1  0
  3  4  2  0
  4  5  1  0
  5  6  2  0
  6  7  1  0
  7  8  1  0
  8  9  2  0
  8 10  2  0
  8 11  1  0
 11 12  1  0
 12 13  2  0
 13 14  1  0
 14 15  2  0
 15 16  1  0
 16 17  1  0
 17 18  2  0
 18 19  1  0
 19 20  2  0
  7 21  2  0
 21 22  1  0
 22 23  2  0
 23  2  1  0
 23  5  1  0
 20 12  1  0
 19 15  1  0
M  END
>  <HIPPO Pose ID>  (294) 
119535

>  <fragmenstein_outcome>  (294) 
acceptable

>  <energy_score>  (294) 
-40.603633

>  <distance_score>  (294) 
0.974188

>  <fragmenstein_mode>  (294) 
expansion

>  <HIPPO Compound ID>  (294) 
40440

>  <name>  (294) 
OPBKSEQHWDGWCG-UHFFFAOYSA-N

>  <ref_pdb>  (294) 
3vws-a

>  <ref_mols>  (294) 
z0136a,3vws-a

>  <csv_name>  (294) 
RdRp_knitwork_green_site_rna_tunnel_pure_split4000_batch011.csv

>  <fragmenstein_runtime>  (294) 
9.030925

>  <tags>  (294) 
['Fragmenstein placed']

>  <original ID>  (294) 
OPBKSEQHWDGWCG-UHFFFAOYSA-N

>  <fragmenstein_error>  (294) 
None

>  <original SMILES>  (294) 
Cn1ccc2cc(S(=O)(=O)Nc3ccc4occc4c3)ccc21

>  <inchikey>  (294) 
OPBKSEQHWDGWCG-UHFFFAOYSA-N

>  <SLURM_JOB_NAME>  (294) 
BulkDock.place:Flavi_NS5_RdRp:RdRp_knitwork_green_site_rna_tunnel_pure_split4000_batch011

>  <scratch_subdir>  (294) 
/opt/xchem-fragalysis-2/maxwin/BulkDock/SCRATCH/217082/C40440-P218

>  <alias>  (294) 
None

>  <SLURM_JOB_ID>  (294) 
217082

>  <exports>  (294) 
['/opt/xchem-fragalysis-2/maxwin/BulkDock/OUTPUTS/RdRp_knitwork_green_site_rna_tunnel_pure_split4000_batch011_217082.sdf']

$$$$
119548
     RDKit          3D

 22 24  0  0  0  0  0  0  0  0999 V2000
  -23.2010  -34.0217  -24.6523 C   0  0  0  0  0  0  0  0  0  0  0  0
  -24.0233  -34.1890  -23.3918 C   0  0  2  0  0  0  0  0  0  0  0  0
  -24.9868  -33.1178  -23.3443 N   0  0  0  0  0  0  0  0  0  0  0  0
  -25.0061  -31.8275  -22.4985 C   0  0  0  0  0  0  0  0  0  0  0  0
  -24.3050  -31.4783  -21.6764 O   0  0  0  0  0  0  0  0  0  0  0  0
  -26.1950  -31.1081  -23.1667 N   0  0  0  0  0  0  0  0  0  0  0  0
  -26.7960  -29.8510  -22.8725 C   0  0  0  0  0  0  0  0  0  0  0  0
  -27.6531  -29.9397  -21.6606 C   0  0  0  0  0  0  0  0  0  0  0  0
  -27.2404  -30.0802  -20.3159 C   0  0  0  0  0  0  0  0  0  0  0  0
  -28.3989  -30.0534  -19.5777 C   0  0  0  0  0  0  0  0  0  0  0  0
  -29.4124  -30.0071  -20.4848 N   0  0  0  0  0  0  0  0  0  0  0  0
  -30.8180  -30.1471  -20.2114 C   0  0  0  0  0  0  0  0  0  0  0  0
  -28.9894  -29.8715  -21.7519 N   0  0  0  0  0  0  0  0  0  0  0  0
  -23.1855  -34.4322  -22.1816 C   0  0  0  0  0  0  0  0  0  0  0  0
  -23.2733  -35.5642  -21.3887 C   0  0  0  0  0  0  0  0  0  0  0  0
  -22.2642  -35.6257  -20.4885 O   0  0  0  0  0  0  0  0  0  0  0  0
  -21.5186  -34.5023  -20.6547 C   0  0  0  0  0  0  0  0  0  0  0  0
  -20.3727  -34.1888  -19.9228 C   0  0  0  0  0  0  0  0  0  0  0  0
  -19.7338  -32.9874  -20.2386 C   0  0  0  0  0  0  0  0  0  0  0  0
  -20.2356  -32.1560  -21.2404 C   0  0  0  0  0  0  0  0  0  0  0  0
  -21.3772  -32.5121  -21.9760 C   0  0  0  0  0  0  0  0  0  0  0  0
  -22.0466  -33.7153  -21.6738 C   0  0  0  0  0  0  0  0  0  0  0  0
  2  1  1  6
  2  3  1  0
  3  4  1  0
  4  5  2  0
  4  6  1  0
  6  7  1  0
  7  8  1  0
  8  9  1  0
  9 10  2  0
 10 11  1  0
 11 12  1  0
 11 13  1  0
  2 14  1  0
 14 15  2  0
 15 16  1  0
 16 17  1  0
 17 18  2  0
 18 19  1  0
 19 20  2  0
 20 21  1  0
 21 22  2  0
 13  8  2  0
 22 14  1  0
 22 17  1  0
M  END
>  <HIPPO Pose ID>  (295) 
119548

>  <fragmenstein_outcome>  (295) 
acceptable

>  <energy_score>  (295) 
-5.202637

>  <distance_score>  (295) 
0.990142

>  <fragmenstein_mode>  (295) 
expansion

>  <HIPPO Compound ID>  (295) 
36229

>  <name>  (295) 
HHWFIUWTGLWOKQ-NSHDSACASA-N

>  <ref_pdb>  (295) 
z0215a

>  <ref_mols>  (295) 
z0215a,3vws-b

>  <csv_name>  (295) 
RdRp_knitwork_green_site_rna_tunnel_pure_split4000_batch001.csv

>  <fragmenstein_runtime>  (295) 
4.954046

>  <tags>  (295) 
['Fragmenstein placed']

>  <original ID>  (295) 
HHWFIUWTGLWOKQ-NSHDSACASA-N

>  <fragmenstein_error>  (295) 
None

>  <original SMILES>  (295) 
C[C@H](NC(=O)NCc1ccn(C)n1)c1coc2ccccc12

>  <inchikey>  (295) 
HHWFIUWTGLWOKQ-NSHDSACASA-N

>  <SLURM_JOB_NAME>  (295) 
BulkDock.place:Flavi_NS5_RdRp:RdRp_knitwork_green_site_rna_tunnel_pure_split4000_batch001

>  <scratch_subdir>  (295) 
/opt/xchem-fragalysis-2/maxwin/BulkDock/SCRATCH/217072/C36229-P104

>  <alias>  (295) 
None

>  <SLURM_JOB_ID>  (295) 
217072

>  <exports>  (295) 
['/opt/xchem-fragalysis-2/maxwin/BulkDock/OUTPUTS/RdRp_knitwork_green_site_rna_tunnel_pure_split4000_batch001_217072.sdf']

$$$$
119882
     RDKit          3D

 22 24  0  0  0  0  0  0  0  0999 V2000
  -23.8341  -33.2180  -19.7900 C   0  0  0  0  0  0  0  0  0  0  0  0
  -24.6108  -32.6226  -20.9575 C   0  0  2  0  0  0  0  0  0  0  0  0
  -23.6739  -31.8003  -21.8769 C   0  0  0  0  0  0  0  0  0  0  0  0
  -22.9404  -32.5900  -22.8543 N   0  0  0  0  0  0  0  0  0  0  0  0
  -21.5073  -32.7450  -22.7978 C   0  0  0  0  0  0  0  0  0  0  0  0
  -21.1230  -33.0525  -24.2331 C   0  0  0  0  0  0  0  0  0  0  0  0
  -22.3650  -33.7091  -24.8206 C   0  0  0  0  0  0  0  0  0  0  0  0
  -23.4842  -33.0754  -24.0327 C   0  0  0  0  0  0  0  0  0  0  0  0
  -24.6550  -33.0400  -24.3800 O   0  0  0  0  0  0  0  0  0  0  0  0
  -25.7213  -31.8143  -20.4626 N   0  0  0  0  0  0  0  0  0  0  0  0
  -26.6796  -30.8782  -21.2055 C   0  0  0  0  0  0  0  0  0  0  0  0
  -26.6915  -30.5400  -22.3187 O   0  0  0  0  0  0  0  0  0  0  0  0
  -27.8092  -30.3283  -20.3606 C   0  0  0  0  0  0  0  0  0  0  0  0
  -28.9269  -29.9237  -21.1074 C   0  0  0  0  0  0  0  0  0  0  0  0
  -30.1483  -29.6769  -20.5125 C   0  0  0  0  0  0  0  0  0  0  0  0
  -30.2343  -29.7367  -19.1359 C   0  0  0  0  0  0  0  0  0  0  0  0
  -29.1104  -29.9005  -18.3505 C   0  0  0  0  0  0  0  0  0  0  0  0
  -29.2837  -29.7473  -17.0305 N   0  0  0  0  0  0  0  0  0  0  0  0
  -28.1920  -29.7511  -16.2444 C   0  0  0  0  0  0  0  0  0  0  0  0
  -26.9085  -29.9087  -16.7204 C   0  0  0  0  0  0  0  0  0  0  0  0
  -26.7414  -30.1329  -18.0821 C   0  0  0  0  0  0  0  0  0  0  0  0
  -27.8542  -30.1603  -18.9539 C   0  0  0  0  0  0  0  0  0  0  0  0
  2  1  1  1
  2  3  1  0
  3  4  1  0
  4  5  1  0
  5  6  1  0
  6  7  1  0
  7  8  1  0
  8  9  2  0
  2 10  1  0
 10 11  1  0
 11 12  2  0
 11 13  1  0
 13 14  2  0
 14 15  1  0
 15 16  2  0
 16 17  1  0
 17 18  2  0
 18 19  1  0
 19 20  2  0
 20 21  1  0
 21 22  2  0
  8  4  1  0
 22 13  1  0
 22 17  1  0
M  END
>  <HIPPO Pose ID>  (296) 
119882

>  <fragmenstein_outcome>  (296) 
acceptable

>  <energy_score>  (296) 
-45.046073

>  <distance_score>  (296) 
0.843755

>  <fragmenstein_mode>  (296) 
expansion

>  <HIPPO Compound ID>  (296) 
65404

>  <name>  (296) 
XZCHKOUIHXKRTC-GFCCVEGCSA-N

>  <ref_pdb>  (296) 
z1018a

>  <ref_mols>  (296) 
z1018a,z1040a

>  <csv_name>  (296) 
RdRp_knitwork_green_site_rna_tunnel_pure_split4000_batch011.csv

>  <fragmenstein_runtime>  (296) 
5.61817

>  <tags>  (296) 
['Fragmenstein placed']

>  <original ID>  (296) 
XZCHKOUIHXKRTC-GFCCVEGCSA-N

>  <fragmenstein_error>  (296) 
None

>  <original SMILES>  (296) 
C[C@H](CN1CCCC1=O)NC(=O)c1cccc2ncccc12

>  <inchikey>  (296) 
XZCHKOUIHXKRTC-GFCCVEGCSA-N

>  <SLURM_JOB_NAME>  (296) 
BulkDock.place:Flavi_NS5_RdRp:RdRp_knitwork_green_site_rna_tunnel_pure_split4000_batch011

>  <scratch_subdir>  (296) 
/opt/xchem-fragalysis-2/maxwin/BulkDock/SCRATCH/217082/C65404-P206

>  <alias>  (296) 
None

>  <SLURM_JOB_ID>  (296) 
217082

>  <exports>  (296) 
['/opt/xchem-fragalysis-2/maxwin/BulkDock/OUTPUTS/RdRp_knitwork_green_site_rna_tunnel_pure_split4000_batch011_217082.sdf']

$$$$
119993
     RDKit          3D

 22 24  0  0  0  0  0  0  0  0999 V2000
  -27.4301  -30.1028  -15.8767 C   0  0  0  0  0  0  0  0  0  0  0  0
  -26.9510  -29.8873  -17.3019 C   0  0  0  0  0  0  0  0  0  0  0  0
  -28.1152  -29.8959  -18.2993 C   0  0  0  0  0  0  0  0  0  0  0  0
  -27.6989  -30.0236  -19.7334 C   0  0  0  0  0  0  0  0  0  0  0  0
  -26.5164  -30.5994  -20.2517 C   0  0  0  0  0  0  0  0  0  0  0  0
  -26.6347  -30.5625  -21.6241 C   0  0  0  0  0  0  0  0  0  0  0  0
  -25.7356  -31.0414  -22.6395 C   0  0  0  0  0  0  0  0  0  0  0  0
  -25.6706  -30.6031  -23.7802 O   0  0  0  0  0  0  0  0  0  0  0  0
  -24.9947  -32.0602  -22.1211 O   0  0  0  0  0  0  0  0  0  0  0  0
  -24.0228  -32.7189  -22.9630 C   0  0  2  0  0  0  0  0  0  0  0  0
  -24.7366  -33.5580  -24.0247 C   0  0  0  0  0  0  0  0  0  0  0  0
  -23.1254  -33.5855  -22.1067 C   0  0  0  0  0  0  0  0  0  0  0  0
  -23.3318  -34.8998  -21.7177 C   0  0  0  0  0  0  0  0  0  0  0  0
  -22.3176  -35.3562  -20.9402 O   0  0  0  0  0  0  0  0  0  0  0  0
  -21.4445  -34.3256  -20.7886 C   0  0  0  0  0  0  0  0  0  0  0  0
  -20.2756  -34.3631  -20.0292 C   0  0  0  0  0  0  0  0  0  0  0  0
  -19.5033  -33.1981  -20.0086 C   0  0  0  0  0  0  0  0  0  0  0  0
  -19.9005  -32.0613  -20.7147 C   0  0  0  0  0  0  0  0  0  0  0  0
  -21.0790  -32.0589  -21.4749 C   0  0  0  0  0  0  0  0  0  0  0  0
  -21.8793  -33.2159  -21.5043 C   0  0  0  0  0  0  0  0  0  0  0  0
  -27.8428  -29.9574  -21.8495 N   0  0  0  0  0  0  0  0  0  0  0  0
  -28.5099  -29.6286  -20.7233 N   0  0  0  0  0  0  0  0  0  0  0  0
  1  2  1  0
  2  3  1  0
  3  4  1  0
  4  5  1  0
  5  6  2  0
  6  7  1  0
  7  8  2  0
  7  9  1  0
  9 10  1  0
 10 11  1  6
 10 12  1  0
 12 13  2  0
 13 14  1  0
 14 15  1  0
 15 16  2  0
 16 17  1  0
 17 18  2  0
 18 19  1  0
 19 20  2  0
  6 21  1  0
 21 22  1  0
 22  4  2  0
 20 12  1  0
 20 15  1  0
M  END
>  <HIPPO Pose ID>  (297) 
119993

>  <fragmenstein_outcome>  (297) 
acceptable

>  <energy_score>  (297) 
-30.453068

>  <distance_score>  (297) 
0.975512

>  <fragmenstein_mode>  (297) 
expansion

>  <HIPPO Compound ID>  (297) 
27063

>  <name>  (297) 
RYKAYUCXINLYPO-LLVKDONJSA-N

>  <ref_pdb>  (297) 
z0215a

>  <ref_mols>  (297) 
z0215a,3vws-b

>  <csv_name>  (297) 
RdRp_knitwork_green_site_rna_tunnel_pure_split4000_batch001.csv

>  <fragmenstein_runtime>  (297) 
4.280494

>  <tags>  (297) 
['Fragmenstein placed']

>  <original ID>  (297) 
RYKAYUCXINLYPO-LLVKDONJSA-N

>  <fragmenstein_error>  (297) 
None

>  <original SMILES>  (297) 
CCCc1cc(C(=O)O[C@H](C)c2coc3ccccc23)[nH]n1

>  <inchikey>  (297) 
RYKAYUCXINLYPO-LLVKDONJSA-N

>  <SLURM_JOB_NAME>  (297) 
BulkDock.place:Flavi_NS5_RdRp:RdRp_knitwork_green_site_rna_tunnel_pure_split4000_batch001

>  <scratch_subdir>  (297) 
/opt/xchem-fragalysis-2/maxwin/BulkDock/SCRATCH/217072/C27063-P104

>  <alias>  (297) 
None

>  <SLURM_JOB_ID>  (297) 
217072

>  <exports>  (297) 
['/opt/xchem-fragalysis-2/maxwin/BulkDock/OUTPUTS/RdRp_knitwork_green_site_rna_tunnel_pure_split4000_batch001_217072.sdf']

$$$$
120043
     RDKit          3D

 24 26  0  0  0  0  0  0  0  0999 V2000
  -30.0338  -29.1224  -21.2636 C   0  0  0  0  0  0  0  0  0  0  0  0
  -30.1553  -30.2274  -20.3739 O   0  0  0  0  0  0  0  0  0  0  0  0
  -29.2566  -30.1104  -19.3459 C   0  0  0  0  0  0  0  0  0  0  0  0
  -29.7955  -29.7717  -18.1117 C   0  0  0  0  0  0  0  0  0  0  0  0
  -28.9643  -29.6611  -17.0135 C   0  0  0  0  0  0  0  0  0  0  0  0
  -27.5951  -29.9049  -17.1547 C   0  0  0  0  0  0  0  0  0  0  0  0
  -26.7704  -29.8612  -16.0335 C   0  0  0  0  0  0  0  0  0  0  0  0
  -25.4245  -30.1548  -16.1488 C   0  0  0  0  0  0  0  0  0  0  0  0
  -24.9234  -30.4334  -17.3963 C   0  0  0  0  0  0  0  0  0  0  0  0
  -25.6899  -30.4708  -18.5050 N   0  0  0  0  0  0  0  0  0  0  0  0
  -27.0262  -30.2565  -18.3999 C   0  0  0  0  0  0  0  0  0  0  0  0
  -27.8859  -30.3984  -19.5030 C   0  0  0  0  0  0  0  0  0  0  0  0
  -27.3917  -30.8777  -20.8523 C   0  0  0  0  0  0  0  0  0  0  0  0
  -26.0988  -31.4905  -20.8296 N   0  0  0  0  0  0  0  0  0  0  0  0
  -25.6126  -32.8361  -21.4239 C   0  0  0  0  0  0  0  0  0  0  0  0
  -26.1716  -33.6145  -22.0886 O   0  0  0  0  0  0  0  0  0  0  0  0
  -24.1374  -32.9532  -21.0638 C   0  0  0  0  0  0  0  0  0  0  0  0
  -23.3040  -31.9207  -21.8239 C   0  0  0  0  0  0  0  0  0  0  0  0
  -22.6606  -32.4576  -23.0083 N   0  0  0  0  0  0  0  0  0  0  0  0
  -21.2936  -32.9040  -22.9908 C   0  0  0  0  0  0  0  0  0  0  0  0
  -20.9743  -33.1248  -24.4561 C   0  0  0  0  0  0  0  0  0  0  0  0
  -22.3181  -33.4735  -25.0811 C   0  0  0  0  0  0  0  0  0  0  0  0
  -23.3011  -32.7423  -24.2010 C   0  0  0  0  0  0  0  0  0  0  0  0
  -24.4569  -32.4881  -24.4984 O   0  0  0  0  0  0  0  0  0  0  0  0
  1  2  1  0
  2  3  1  0
  3  4  2  0
  4  5  1  0
  5  6  2  0
  6  7  1  0
  7  8  2  0
  8  9  1  0
  9 10  2  0
 10 11  1  0
 11 12  2  0
 12 13  1  0
 13 14  1  0
 14 15  1  0
 15 16  2  0
 15 17  1  0
 17 18  1  0
 18 19  1  0
 19 20  1  0
 20 21  1  0
 21 22  1  0
 22 23  1  0
 23 24  2  0
 12  3  1  0
 23 19  1  0
 11  6  1  0
M  END
>  <HIPPO Pose ID>  (298) 
120043

>  <fragmenstein_outcome>  (298) 
acceptable

>  <energy_score>  (298) 
-26.216878

>  <distance_score>  (298) 
0.99899

>  <fragmenstein_mode>  (298) 
expansion

>  <HIPPO Compound ID>  (298) 
65434

>  <name>  (298) 
GNOBTQCXYBMFAB-UHFFFAOYSA-N

>  <ref_pdb>  (298) 
z1018a

>  <ref_mols>  (298) 
z1018a,z1040a

>  <csv_name>  (298) 
RdRp_knitwork_green_site_rna_tunnel_pure_split4000_batch011.csv

>  <fragmenstein_runtime>  (298) 
8.27763

>  <tags>  (298) 
['Fragmenstein placed']

>  <original ID>  (298) 
GNOBTQCXYBMFAB-UHFFFAOYSA-N

>  <fragmenstein_error>  (298) 
None

>  <original SMILES>  (298) 
COc1ccc2cccnc2c1CNC(=O)CCN1CCCC1=O

>  <inchikey>  (298) 
GNOBTQCXYBMFAB-UHFFFAOYSA-N

>  <SLURM_JOB_NAME>  (298) 
BulkDock.place:Flavi_NS5_RdRp:RdRp_knitwork_green_site_rna_tunnel_pure_split4000_batch011

>  <scratch_subdir>  (298) 
/opt/xchem-fragalysis-2/maxwin/BulkDock/SCRATCH/217082/C65434-P206

>  <alias>  (298) 
None

>  <SLURM_JOB_ID>  (298) 
217082

>  <exports>  (298) 
['/opt/xchem-fragalysis-2/maxwin/BulkDock/OUTPUTS/RdRp_knitwork_green_site_rna_tunnel_pure_split4000_batch011_217082.sdf']

$$$$
120066
     RDKit          3D

 24 26  0  0  0  0  0  0  0  0999 V2000
  -30.2528  -29.7127  -20.9036 C   0  0  0  0  0  0  0  0  0  0  0  0
  -30.3002  -30.6909  -19.8734 O   0  0  0  0  0  0  0  0  0  0  0  0
  -29.2560  -30.5773  -18.9935 C   0  0  0  0  0  0  0  0  0  0  0  0
  -29.6252  -30.3364  -17.6758 C   0  0  0  0  0  0  0  0  0  0  0  0
  -28.6506  -30.2725  -16.6943 C   0  0  0  0  0  0  0  0  0  0  0  0
  -27.2992  -30.4117  -17.0378 C   0  0  0  0  0  0  0  0  0  0  0  0
  -26.3153  -30.3703  -16.0458 C   0  0  0  0  0  0  0  0  0  0  0  0
  -24.9710  -30.4436  -16.3714 C   0  0  0  0  0  0  0  0  0  0  0  0
  -24.6445  -30.5644  -17.6957 C   0  0  0  0  0  0  0  0  0  0  0  0
  -25.5663  -30.6476  -18.6822 N   0  0  0  0  0  0  0  0  0  0  0  0
  -26.8948  -30.6044  -18.3744 C   0  0  0  0  0  0  0  0  0  0  0  0
  -27.9047  -30.7737  -19.3477 C   0  0  0  0  0  0  0  0  0  0  0  0
  -27.5766  -31.2086  -20.7601 C   0  0  0  0  0  0  0  0  0  0  0  0
  -26.2692  -31.7616  -20.8920 N   0  0  0  0  0  0  0  0  0  0  0  0
  -25.8063  -33.1157  -21.4754 C   0  0  0  0  0  0  0  0  0  0  0  0
  -26.4136  -33.9556  -22.0081 O   0  0  0  0  0  0  0  0  0  0  0  0
  -24.3085  -33.1967  -21.2020 C   0  0  0  0  0  0  0  0  0  0  0  0
  -23.5290  -32.0848  -21.9029 C   0  0  0  0  0  0  0  0  0  0  0  0
  -22.8344  -32.5557  -23.0800 N   0  0  0  0  0  0  0  0  0  0  0  0
  -21.4873  -33.0473  -23.0374 C   0  0  0  0  0  0  0  0  0  0  0  0
  -21.1351  -33.1213  -24.5058 C   0  0  0  0  0  0  0  0  0  0  0  0
  -22.4489  -33.5006  -25.1750 C   0  0  0  0  0  0  0  0  0  0  0  0
  -23.4655  -32.8377  -24.2817 C   0  0  0  0  0  0  0  0  0  0  0  0
  -24.6314  -32.6361  -24.5695 O   0  0  0  0  0  0  0  0  0  0  0  0
  1  2  1  0
  2  3  1  0
  3  4  2  0
  4  5  1  0
  5  6  2  0
  6  7  1  0
  7  8  2  0
  8  9  1  0
  9 10  2  0
 10 11  1  0
 11 12  2  0
 12 13  1  0
 13 14  1  0
 14 15  1  0
 15 16  2  0
 15 17  1  0
 17 18  1  0
 18 19  1  0
 19 20  1  0
 20 21  1  0
 21 22  1  0
 22 23  1  0
 23 24  2  0
 12  3  1  0
 23 19  1  0
 11  6  1  0
M  END
>  <HIPPO Pose ID>  (299) 
120066

>  <fragmenstein_outcome>  (299) 
acceptable

>  <energy_score>  (299) 
-27.278727

>  <distance_score>  (299) 
0.958207

>  <fragmenstein_mode>  (299) 
expansion

>  <HIPPO Compound ID>  (299) 
65434

>  <name>  (299) 
GNOBTQCXYBMFAB-UHFFFAOYSA-N

>  <ref_pdb>  (299) 
z1040a

>  <ref_mols>  (299) 
z1018a,z1040a

>  <csv_name>  (299) 
RdRp_knitwork_green_site_rna_tunnel_pure_split4000_batch011.csv

>  <fragmenstein_runtime>  (299) 
6.519452

>  <tags>  (299) 
['Fragmenstein placed']

>  <original ID>  (299) 
GNOBTQCXYBMFAB-UHFFFAOYSA-N

>  <fragmenstein_error>  (299) 
None

>  <original SMILES>  (299) 
COc1ccc2cccnc2c1CNC(=O)CCN1CCCC1=O

>  <inchikey>  (299) 
GNOBTQCXYBMFAB-UHFFFAOYSA-N

>  <SLURM_JOB_NAME>  (299) 
BulkDock.place:Flavi_NS5_RdRp:RdRp_knitwork_green_site_rna_tunnel_pure_split4000_batch011

>  <scratch_subdir>  (299) 
/opt/xchem-fragalysis-2/maxwin/BulkDock/SCRATCH/217082/C65434-P208

>  <alias>  (299) 
None

>  <SLURM_JOB_ID>  (299) 
217082

>  <exports>  (299) 
['/opt/xchem-fragalysis-2/maxwin/BulkDock/OUTPUTS/RdRp_knitwork_green_site_rna_tunnel_pure_split4000_batch011_217082.sdf']

$$$$
120094
     RDKit          3D

 22 24  0  0  0  0  0  0  0  0999 V2000
  -18.0414  -32.9875  -18.7379 C   0  0  0  0  0  0  0  0  0  0  0  0
  -19.2160  -33.2865  -19.6251 C   0  0  0  0  0  0  0  0  0  0  0  0
  -19.7105  -32.2977  -20.4885 C   0  0  0  0  0  0  0  0  0  0  0  0
  -20.7836  -32.5553  -21.3527 C   0  0  0  0  0  0  0  0  0  0  0  0
  -21.3573  -33.8409  -21.3570 C   0  0  0  0  0  0  0  0  0  0  0  0
  -22.3629  -34.5140  -22.1148 C   0  0  0  0  0  0  0  0  0  0  0  0
  -23.1217  -33.9908  -23.2742 C   0  0  0  0  0  0  0  0  0  0  0  0
  -23.6915  -32.6008  -23.0376 C   0  0  0  0  0  0  0  0  0  0  0  0
  -23.5080  -31.7160  -23.7762 O   0  0  0  0  0  0  0  0  0  0  0  0
  -24.5714  -32.6806  -21.7685 N   0  0  0  0  0  0  0  0  0  0  0  0
  -25.4670  -31.7343  -21.2077 C   0  0  0  0  0  0  0  0  0  0  0  0
  -25.2435  -31.2275  -19.7918 C   0  0  0  0  0  0  0  0  0  0  0  0
  -26.6186  -30.8003  -19.3223 C   0  0  0  0  0  0  0  0  0  0  0  0
  -27.2527  -29.6959  -19.8999 C   0  0  0  0  0  0  0  0  0  0  0  0
  -28.6109  -29.5378  -19.6971 C   0  0  0  0  0  0  0  0  0  0  0  0
  -29.3583  -30.3648  -18.9456 N   0  0  0  0  0  0  0  0  0  0  0  0
  -28.7232  -31.4052  -18.3723 C   0  0  0  0  0  0  0  0  0  0  0  0
  -27.3692  -31.6543  -18.5132 C   0  0  0  0  0  0  0  0  0  0  0  0
  -22.4533  -35.7852  -21.5847 C   0  0  0  0  0  0  0  0  0  0  0  0
  -21.5338  -35.9591  -20.6069 O   0  0  0  0  0  0  0  0  0  0  0  0
  -20.8532  -34.7911  -20.4814 C   0  0  0  0  0  0  0  0  0  0  0  0
  -19.7886  -34.5691  -19.6139 C   0  0  0  0  0  0  0  0  0  0  0  0
  1  2  1  0
  2  3  2  0
  3  4  1  0
  4  5  2  0
  5  6  1  0
  6  7  1  0
  7  8  1  0
  8  9  2  0
  8 10  1  0
 10 11  1  0
 11 12  1  0
 12 13  1  0
 13 14  2  0
 14 15  1  0
 15 16  2  0
 16 17  1  0
 17 18  2  0
  6 19  2  0
 19 20  1  0
 20 21  1  0
 21 22  2  0
 22  2  1  0
 21  5  1  0
 18 13  1  0
M  END
>  <HIPPO Pose ID>  (300) 
120094

>  <fragmenstein_outcome>  (300) 
acceptable

>  <energy_score>  (300) 
-31.601076

>  <distance_score>  (300) 
0.908595

>  <fragmenstein_mode>  (300) 
expansion

>  <HIPPO Compound ID>  (300) 
38726

>  <name>  (300) 
XLHUGAOHXRNIAV-UHFFFAOYSA-N

>  <ref_pdb>  (300) 
3vws-b

>  <ref_mols>  (300) 
z0411a,3vws-b

>  <csv_name>  (300) 
RdRp_knitwork_green_site_rna_tunnel_pure_split4000_batch016.csv

>  <fragmenstein_runtime>  (300) 
3.6865

>  <tags>  (300) 
['Fragmenstein placed']

>  <original ID>  (300) 
XLHUGAOHXRNIAV-UHFFFAOYSA-N

>  <fragmenstein_error>  (300) 
None

>  <original SMILES>  (300) 
Cc1ccc2c(CC(=O)NCCc3ccncc3)coc2c1

>  <inchikey>  (300) 
XLHUGAOHXRNIAV-UHFFFAOYSA-N

>  <SLURM_JOB_NAME>  (300) 
BulkDock.place:Flavi_NS5_RdRp:RdRp_knitwork_green_site_rna_tunnel_pure_split4000_batch016

>  <scratch_subdir>  (300) 
/opt/xchem-fragalysis-2/maxwin/BulkDock/SCRATCH/217087/C38726-P217

>  <alias>  (300) 
None

>  <SLURM_JOB_ID>  (300) 
217087

>  <exports>  (300) 
['/opt/xchem-fragalysis-2/maxwin/BulkDock/OUTPUTS/RdRp_knitwork_green_site_rna_tunnel_pure_split4000_batch016_217087.sdf']

$$$$
120115
     RDKit          3D

 21 24  0  0  0  0  0  0  0  0999 V2000
  -24.3617  -34.5142  -24.2610 O   0  0  0  0  0  0  0  0  0  0  0  0
  -23.8332  -33.7635  -23.4471 C   0  0  0  0  0  0  0  0  0  0  0  0
  -24.1043  -32.4210  -23.4543 O   0  0  0  0  0  0  0  0  0  0  0  0
  -24.6347  -31.8870  -22.2217 C   0  0  2  0  0  0  0  0  0  0  0  0
  -26.0401  -32.3578  -21.8073 C   0  0  0  0  0  0  0  0  0  0  0  0
  -26.6118  -31.0190  -22.3318 C   0  0  1  0  0  0  0  0  0  0  0  0
  -27.5318  -30.3687  -21.3737 N   0  0  0  0  0  0  0  0  0  0  0  0
  -28.7666  -29.9197  -21.7123 C   0  0  0  0  0  0  0  0  0  0  0  0
  -29.4150  -29.6906  -20.5266 C   0  0  0  0  0  0  0  0  0  0  0  0
  -28.4410  -29.8696  -19.5381 C   0  0  0  0  0  0  0  0  0  0  0  0
  -27.2760  -30.2501  -20.0597 N   0  0  0  0  0  0  0  0  0  0  0  0
  -25.1978  -30.4604  -22.2925 C   0  0  0  0  0  0  0  0  0  0  0  0
  -22.9188  -34.2404  -22.4245 C   0  0  0  0  0  0  0  0  0  0  0  0
  -22.9659  -35.5196  -21.9039 C   0  0  0  0  0  0  0  0  0  0  0  0
  -22.0305  -35.6928  -20.9376 O   0  0  0  0  0  0  0  0  0  0  0  0
  -21.3394  -34.5247  -20.8438 C   0  0  0  0  0  0  0  0  0  0  0  0
  -20.2740  -34.2896  -19.9754 C   0  0  0  0  0  0  0  0  0  0  0  0
  -19.6634  -33.0349  -20.0566 C   0  0  0  0  0  0  0  0  0  0  0  0
  -20.1131  -32.0750  -20.9650 C   0  0  0  0  0  0  0  0  0  0  0  0
  -21.1825  -32.3441  -21.8323 C   0  0  0  0  0  0  0  0  0  0  0  0
  -21.8236  -33.5982  -21.7619 C   0  0  0  0  0  0  0  0  0  0  0  0
  1  2  2  0
  2  3  1  0
  4  3  1  6
  4  5  1  0
  5  6  1  0
  6  7  1  1
  7  8  1  0
  8  9  2  0
  9 10  1  0
 10 11  2  0
  6 12  1  0
  2 13  1  0
 13 14  2  0
 14 15  1  0
 15 16  1  0
 16 17  2  0
 17 18  1  0
 18 19  2  0
 19 20  1  0
 20 21  2  0
 12  4  1  0
 21 13  1  0
 11  7  1  0
 21 16  1  0
M  END
>  <HIPPO Pose ID>  (301) 
120115

>  <fragmenstein_outcome>  (301) 
acceptable

>  <energy_score>  (301) 
-24.527007

>  <distance_score>  (301) 
0.985267

>  <fragmenstein_mode>  (301) 
expansion

>  <HIPPO Compound ID>  (301) 
26874

>  <name>  (301) 
UCBXAEQAVQSPFD-HAQNSBGRSA-N

>  <ref_pdb>  (301) 
z0215a

>  <ref_mols>  (301) 
z0215a,3vws-b

>  <csv_name>  (301) 
RdRp_knitwork_green_site_rna_tunnel_pure_split4000_batch001.csv

>  <fragmenstein_runtime>  (301) 
3.953538

>  <tags>  (301) 
['Fragmenstein placed']

>  <original ID>  (301) 
UCBXAEQAVQSPFD-HAQNSBGRSA-N

>  <fragmenstein_error>  (301) 
None

>  <original SMILES>  (301) 
O=C(O[C@H]1C[C@H](n2cccn2)C1)c1coc2ccccc12

>  <inchikey>  (301) 
UCBXAEQAVQSPFD-HAQNSBGRSA-N

>  <SLURM_JOB_NAME>  (301) 
BulkDock.place:Flavi_NS5_RdRp:RdRp_knitwork_green_site_rna_tunnel_pure_split4000_batch001

>  <scratch_subdir>  (301) 
/opt/xchem-fragalysis-2/maxwin/BulkDock/SCRATCH/217072/C26874-P104

>  <alias>  (301) 
None

>  <SLURM_JOB_ID>  (301) 
217072

>  <exports>  (301) 
['/opt/xchem-fragalysis-2/maxwin/BulkDock/OUTPUTS/RdRp_knitwork_green_site_rna_tunnel_pure_split4000_batch001_217072.sdf']

$$$$
120126
     RDKit          3D

 23 25  0  0  0  0  0  0  0  0999 V2000
  -28.5666  -30.2024  -14.7555 C   0  0  0  0  0  0  0  0  0  0  0  0
  -27.6419  -29.3697  -15.4079 O   0  0  0  0  0  0  0  0  0  0  0  0
  -27.6374  -29.6638  -16.7282 C   0  0  0  0  0  0  0  0  0  0  0  0
  -26.4401  -30.1114  -17.2420 C   0  0  0  0  0  0  0  0  0  0  0  0
  -26.3986  -30.4691  -18.5693 C   0  0  0  0  0  0  0  0  0  0  0  0
  -27.5358  -30.2881  -19.3892 C   0  0  0  0  0  0  0  0  0  0  0  0
  -27.5221  -30.4557  -20.7716 C   0  0  0  0  0  0  0  0  0  0  0  0
  -26.4115  -31.0875  -21.5134 C   0  0  0  0  0  0  0  0  0  0  0  0
  -26.1496  -30.7690  -22.6626 O   0  0  0  0  0  0  0  0  0  0  0  0
  -25.8139  -32.0858  -20.8253 O   0  0  0  0  0  0  0  0  0  0  0  0
  -24.8829  -32.8771  -21.5873 C   0  0  0  0  0  0  0  0  0  0  0  0
  -23.6014  -32.1116  -21.9547 C   0  0  0  0  0  0  0  0  0  0  0  0
  -22.7926  -32.7863  -22.9574 N   0  0  0  0  0  0  0  0  0  0  0  0
  -21.3517  -32.7497  -22.8989 C   0  0  0  0  0  0  0  0  0  0  0  0
  -20.9050  -32.9319  -24.3370 C   0  0  0  0  0  0  0  0  0  0  0  0
  -22.0810  -33.5997  -25.0285 C   0  0  0  0  0  0  0  0  0  0  0  0
  -23.2550  -33.1128  -24.2251 C   0  0  0  0  0  0  0  0  0  0  0  0
  -24.4057  -33.0652  -24.6304 O   0  0  0  0  0  0  0  0  0  0  0  0
  -28.5667  -29.9181  -21.5237 C   0  0  0  0  0  0  0  0  0  0  0  0
  -29.7119  -29.4983  -20.8836 C   0  0  0  0  0  0  0  0  0  0  0  0
  -29.8247  -29.4783  -19.5537 N   0  0  0  0  0  0  0  0  0  0  0  0
  -28.7325  -29.7755  -18.8452 C   0  0  0  0  0  0  0  0  0  0  0  0
  -28.7723  -29.4855  -17.5130 C   0  0  0  0  0  0  0  0  0  0  0  0
  1  2  1  0
  2  3  1  0
  3  4  2  0
  4  5  1  0
  5  6  2  0
  6  7  1  0
  7  8  1  0
  8  9  2  0
  8 10  1  0
 10 11  1  0
 11 12  1  0
 12 13  1  0
 13 14  1  0
 14 15  1  0
 15 16  1  0
 16 17  1  0
 17 18  2  0
  7 19  2  0
 19 20  1  0
 20 21  2  0
 21 22  1  0
 22 23  2  0
 23  3  1  0
 22  6  1  0
 17 13  1  0
M  END
>  <HIPPO Pose ID>  (302) 
120126

>  <fragmenstein_outcome>  (302) 
acceptable

>  <energy_score>  (302) 
-74.421962

>  <distance_score>  (302) 
0.88175

>  <fragmenstein_mode>  (302) 
expansion

>  <HIPPO Compound ID>  (302) 
65453

>  <name>  (302) 
UCEGNBRAVYUHCB-UHFFFAOYSA-N

>  <ref_pdb>  (302) 
z1018a

>  <ref_mols>  (302) 
z1018a,z1040a

>  <csv_name>  (302) 
RdRp_knitwork_green_site_rna_tunnel_pure_split4000_batch011.csv

>  <fragmenstein_runtime>  (302) 
4.217189

>  <tags>  (302) 
['Fragmenstein placed']

>  <original ID>  (302) 
UCEGNBRAVYUHCB-UHFFFAOYSA-N

>  <fragmenstein_error>  (302) 
None

>  <original SMILES>  (302) 
COc1ccc2c(C(=O)OCCN3CCCC3=O)ccnc2c1

>  <inchikey>  (302) 
UCEGNBRAVYUHCB-UHFFFAOYSA-N

>  <SLURM_JOB_NAME>  (302) 
BulkDock.place:Flavi_NS5_RdRp:RdRp_knitwork_green_site_rna_tunnel_pure_split4000_batch011

>  <scratch_subdir>  (302) 
/opt/xchem-fragalysis-2/maxwin/BulkDock/SCRATCH/217082/C65453-P206

>  <alias>  (302) 
None

>  <SLURM_JOB_ID>  (302) 
217082

>  <exports>  (302) 
['/opt/xchem-fragalysis-2/maxwin/BulkDock/OUTPUTS/RdRp_knitwork_green_site_rna_tunnel_pure_split4000_batch011_217082.sdf']

$$$$
120134
     RDKit          3D

 22 24  0  0  0  0  0  0  0  0999 V2000
  -19.5102  -31.1804  -20.6309 C   0  0  0  0  0  0  0  0  0  0  0  0
  -20.1652  -32.5258  -20.6572 C   0  0  0  0  0  0  0  0  0  0  0  0
  -19.7647  -33.4886  -19.7207 C   0  0  0  0  0  0  0  0  0  0  0  0
  -20.3805  -34.7390  -19.6562 C   0  0  0  0  0  0  0  0  0  0  0  0
  -21.3969  -34.9797  -20.5752 C   0  0  0  0  0  0  0  0  0  0  0  0
  -22.0997  -36.1383  -20.6693 O   0  0  0  0  0  0  0  0  0  0  0  0
  -22.9593  -35.9976  -21.7051 C   0  0  0  0  0  0  0  0  0  0  0  0
  -22.8241  -34.7587  -22.3006 C   0  0  0  0  0  0  0  0  0  0  0  0
  -23.5746  -34.3009  -23.5072 C   0  0  0  0  0  0  0  0  0  0  0  0
  -24.0384  -32.8530  -23.4437 C   0  0  0  0  0  0  0  0  0  0  0  0
  -23.8310  -32.0986  -24.3101 O   0  0  0  0  0  0  0  0  0  0  0  0
  -24.8105  -32.6658  -22.1116 N   0  0  0  0  0  0  0  0  0  0  0  0
  -25.4015  -31.4901  -21.5327 C   0  0  0  0  0  0  0  0  0  0  0  0
  -25.5721  -31.6173  -20.0192 C   0  0  0  0  0  0  0  0  0  0  0  0
  -26.7246  -30.8632  -19.4041 C   0  0  0  0  0  0  0  0  0  0  0  0
  -28.0095  -30.9002  -19.9542 C   0  0  0  0  0  0  0  0  0  0  0  0
  -29.0563  -30.3110  -19.2634 C   0  0  0  0  0  0  0  0  0  0  0  0
  -28.9113  -29.7019  -18.0699 N   0  0  0  0  0  0  0  0  0  0  0  0
  -27.6688  -29.6792  -17.5473 C   0  0  0  0  0  0  0  0  0  0  0  0
  -26.5605  -30.2337  -18.1675 C   0  0  0  0  0  0  0  0  0  0  0  0
  -21.8143  -34.0755  -21.5454 C   0  0  0  0  0  0  0  0  0  0  0  0
  -21.1902  -32.8110  -21.5819 C   0  0  0  0  0  0  0  0  0  0  0  0
  1  2  1  0
  2  3  2  0
  3  4  1  0
  4  5  2  0
  5  6  1  0
  6  7  1  0
  7  8  2  0
  8  9  1  0
  9 10  1  0
 10 11  2  0
 10 12  1  0
 12 13  1  0
 13 14  1  0
 14 15  1  0
 15 16  2  0
 16 17  1  0
 17 18  2  0
 18 19  1  0
 19 20  2  0
  8 21  1  0
 21 22  2  0
 22  2  1  0
 21  5  1  0
 20 15  1  0
M  END
>  <HIPPO Pose ID>  (303) 
120134

>  <fragmenstein_outcome>  (303) 
acceptable

>  <energy_score>  (303) 
-19.931089

>  <distance_score>  (303) 
0.881932

>  <fragmenstein_mode>  (303) 
expansion

>  <HIPPO Compound ID>  (303) 
38763

>  <name>  (303) 
SUNDGPPCFJSFQO-UHFFFAOYSA-N

>  <ref_pdb>  (303) 
z0411a

>  <ref_mols>  (303) 
z0411a,3vws-b

>  <csv_name>  (303) 
RdRp_knitwork_green_site_rna_tunnel_pure_split4000_batch016.csv

>  <fragmenstein_runtime>  (303) 
3.126544

>  <tags>  (303) 
['Fragmenstein placed']

>  <original ID>  (303) 
SUNDGPPCFJSFQO-UHFFFAOYSA-N

>  <fragmenstein_error>  (303) 
None

>  <original SMILES>  (303) 
Cc1ccc2occ(CC(=O)NCCc3ccncc3)c2c1

>  <inchikey>  (303) 
SUNDGPPCFJSFQO-UHFFFAOYSA-N

>  <SLURM_JOB_NAME>  (303) 
BulkDock.place:Flavi_NS5_RdRp:RdRp_knitwork_green_site_rna_tunnel_pure_split4000_batch016

>  <scratch_subdir>  (303) 
/opt/xchem-fragalysis-2/maxwin/BulkDock/SCRATCH/217087/C38763-P123

>  <alias>  (303) 
None

>  <SLURM_JOB_ID>  (303) 
217087

>  <exports>  (303) 
['/opt/xchem-fragalysis-2/maxwin/BulkDock/OUTPUTS/RdRp_knitwork_green_site_rna_tunnel_pure_split4000_batch016_217087.sdf']

$$$$
120139
     RDKit          3D

 23 25  0  0  0  0  0  0  0  0999 V2000
  -28.9691  -31.7559  -14.3858 C   0  0  0  0  0  0  0  0  0  0  0  0
  -27.9275  -30.9524  -14.9404 O   0  0  0  0  0  0  0  0  0  0  0  0
  -28.0537  -30.7355  -16.2846 C   0  0  0  0  0  0  0  0  0  0  0  0
  -26.8772  -30.7296  -17.0229 C   0  0  0  0  0  0  0  0  0  0  0  0
  -26.9292  -30.6247  -18.4124 C   0  0  0  0  0  0  0  0  0  0  0  0
  -28.1717  -30.4950  -19.0777 C   0  0  0  0  0  0  0  0  0  0  0  0
  -28.3712  -30.4348  -20.4736 C   0  0  0  0  0  0  0  0  0  0  0  0
  -27.3600  -30.7977  -21.5003 C   0  0  0  0  0  0  0  0  0  0  0  0
  -27.3644  -30.3254  -22.6258 O   0  0  0  0  0  0  0  0  0  0  0  0
  -26.5318  -31.7648  -21.0386 O   0  0  0  0  0  0  0  0  0  0  0  0
  -25.7106  -32.4239  -22.0236 C   0  0  0  0  0  0  0  0  0  0  0  0
  -24.3171  -31.7896  -22.1135 C   0  0  0  0  0  0  0  0  0  0  0  0
  -23.3691  -32.5707  -22.8934 N   0  0  0  0  0  0  0  0  0  0  0  0
  -21.9737  -32.6484  -22.5420 C   0  0  0  0  0  0  0  0  0  0  0  0
  -21.2699  -32.8865  -23.8633 C   0  0  0  0  0  0  0  0  0  0  0  0
  -22.3253  -33.5243  -24.7515 C   0  0  0  0  0  0  0  0  0  0  0  0
  -23.6025  -32.9590  -24.2026 C   0  0  0  0  0  0  0  0  0  0  0  0
  -24.6570  -32.9133  -24.8107 O   0  0  0  0  0  0  0  0  0  0  0  0
  -29.6335  -30.1152  -20.9757 C   0  0  0  0  0  0  0  0  0  0  0  0
  -30.6932  -30.0449  -20.1087 C   0  0  0  0  0  0  0  0  0  0  0  0
  -30.5589  -30.2091  -18.7888 N   0  0  0  0  0  0  0  0  0  0  0  0
  -29.3384  -30.3985  -18.2919 C   0  0  0  0  0  0  0  0  0  0  0  0
  -29.2676  -30.5210  -16.9223 C   0  0  0  0  0  0  0  0  0  0  0  0
  1  2  1  0
  2  3  1  0
  3  4  2  0
  4  5  1  0
  5  6  2  0
  6  7  1  0
  7  8  1  0
  8  9  2  0
  8 10  1  0
 10 11  1  0
 11 12  1  0
 12 13  1  0
 13 14  1  0
 14 15  1  0
 15 16  1  0
 16 17  1  0
 17 18  2  0
  7 19  2  0
 19 20  1  0
 20 21  2  0
 21 22  1  0
 22 23  2  0
 23  3  1  0
 22  6  1  0
 17 13  1  0
M  END
>  <HIPPO Pose ID>  (304) 
120139

>  <fragmenstein_outcome>  (304) 
acceptable

>  <energy_score>  (304) 
-83.014654

>  <distance_score>  (304) 
0.898624

>  <fragmenstein_mode>  (304) 
expansion

>  <HIPPO Compound ID>  (304) 
65453

>  <name>  (304) 
UCEGNBRAVYUHCB-UHFFFAOYSA-N

>  <ref_pdb>  (304) 
z1040a

>  <ref_mols>  (304) 
z1018a,z1040a

>  <csv_name>  (304) 
RdRp_knitwork_green_site_rna_tunnel_pure_split4000_batch011.csv

>  <fragmenstein_runtime>  (304) 
3.382396

>  <tags>  (304) 
['Fragmenstein placed']

>  <original ID>  (304) 
UCEGNBRAVYUHCB-UHFFFAOYSA-N

>  <fragmenstein_error>  (304) 
None

>  <original SMILES>  (304) 
COc1ccc2c(C(=O)OCCN3CCCC3=O)ccnc2c1

>  <inchikey>  (304) 
UCEGNBRAVYUHCB-UHFFFAOYSA-N

>  <SLURM_JOB_NAME>  (304) 
BulkDock.place:Flavi_NS5_RdRp:RdRp_knitwork_green_site_rna_tunnel_pure_split4000_batch011

>  <scratch_subdir>  (304) 
/opt/xchem-fragalysis-2/maxwin/BulkDock/SCRATCH/217082/C65453-P208

>  <alias>  (304) 
None

>  <SLURM_JOB_ID>  (304) 
217082

>  <exports>  (304) 
['/opt/xchem-fragalysis-2/maxwin/BulkDock/OUTPUTS/RdRp_knitwork_green_site_rna_tunnel_pure_split4000_batch011_217082.sdf']

$$$$
120142
     RDKit          3D

 22 24  0  0  0  0  0  0  0  0999 V2000
  -19.3728  -30.9410  -20.5753 C   0  0  0  0  0  0  0  0  0  0  0  0
  -20.0186  -32.2892  -20.7031 C   0  0  0  0  0  0  0  0  0  0  0  0
  -19.4440  -33.4121  -20.0927 C   0  0  0  0  0  0  0  0  0  0  0  0
  -20.0535  -34.6690  -20.1631 C   0  0  0  0  0  0  0  0  0  0  0  0
  -21.2567  -34.7434  -20.8605 C   0  0  0  0  0  0  0  0  0  0  0  0
  -21.9803  -35.8760  -21.0365 O   0  0  0  0  0  0  0  0  0  0  0  0
  -23.0742  -35.5434  -21.7585 C   0  0  0  0  0  0  0  0  0  0  0  0
  -23.0853  -34.1937  -22.0655 C   0  0  0  0  0  0  0  0  0  0  0  0
  -24.1594  -33.5309  -22.8684 C   0  0  0  0  0  0  0  0  0  0  0  0
  -24.0673  -32.0095  -22.9013 C   0  0  0  0  0  0  0  0  0  0  0  0
  -23.5879  -31.4338  -23.7962 O   0  0  0  0  0  0  0  0  0  0  0  0
  -24.6674  -31.4821  -21.5760 N   0  0  0  0  0  0  0  0  0  0  0  0
  -24.7157  -30.1480  -21.0375 C   0  0  0  0  0  0  0  0  0  0  0  0
  -25.1816  -30.0947  -19.5901 C   0  0  0  0  0  0  0  0  0  0  0  0
  -26.6480  -30.3676  -19.4008 C   0  0  0  0  0  0  0  0  0  0  0  0
  -27.6171  -29.5081  -19.9262 C   0  0  0  0  0  0  0  0  0  0  0  0
  -28.9509  -29.7753  -19.6716 C   0  0  0  0  0  0  0  0  0  0  0  0
  -29.3734  -30.8243  -18.9477 N   0  0  0  0  0  0  0  0  0  0  0  0
  -28.4289  -31.6509  -18.4641 C   0  0  0  0  0  0  0  0  0  0  0  0
  -27.0706  -31.4641  -18.6504 C   0  0  0  0  0  0  0  0  0  0  0  0
  -21.8828  -33.6659  -21.4783 C   0  0  0  0  0  0  0  0  0  0  0  0
  -21.2436  -32.4098  -21.3908 C   0  0  0  0  0  0  0  0  0  0  0  0
  1  2  1  0
  2  3  2  0
  3  4  1  0
  4  5  2  0
  5  6  1  0
  6  7  1  0
  7  8  2  0
  8  9  1  0
  9 10  1  0
 10 11  2  0
 10 12  1  0
 12 13  1  0
 13 14  1  0
 14 15  1  0
 15 16  2  0
 16 17  1  0
 17 18  2  0
 18 19  1  0
 19 20  2  0
  8 21  1  0
 21 22  2  0
 22  2  1  0
 21  5  1  0
 20 15  1  0
M  END
>  <HIPPO Pose ID>  (305) 
120142

>  <fragmenstein_outcome>  (305) 
acceptable

>  <energy_score>  (305) 
-22.703665

>  <distance_score>  (305) 
0.969628

>  <fragmenstein_mode>  (305) 
expansion

>  <HIPPO Compound ID>  (305) 
38763

>  <name>  (305) 
SUNDGPPCFJSFQO-UHFFFAOYSA-N

>  <ref_pdb>  (305) 
3vws-b

>  <ref_mols>  (305) 
z0411a,3vws-b

>  <csv_name>  (305) 
RdRp_knitwork_green_site_rna_tunnel_pure_split4000_batch016.csv

>  <fragmenstein_runtime>  (305) 
3.333611

>  <tags>  (305) 
['Fragmenstein placed']

>  <original ID>  (305) 
SUNDGPPCFJSFQO-UHFFFAOYSA-N

>  <fragmenstein_error>  (305) 
None

>  <original SMILES>  (305) 
Cc1ccc2occ(CC(=O)NCCc3ccncc3)c2c1

>  <inchikey>  (305) 
SUNDGPPCFJSFQO-UHFFFAOYSA-N

>  <SLURM_JOB_NAME>  (305) 
BulkDock.place:Flavi_NS5_RdRp:RdRp_knitwork_green_site_rna_tunnel_pure_split4000_batch016

>  <scratch_subdir>  (305) 
/opt/xchem-fragalysis-2/maxwin/BulkDock/SCRATCH/217087/C38763-P217

>  <alias>  (305) 
None

>  <SLURM_JOB_ID>  (305) 
217087

>  <exports>  (305) 
['/opt/xchem-fragalysis-2/maxwin/BulkDock/OUTPUTS/RdRp_knitwork_green_site_rna_tunnel_pure_split4000_batch016_217087.sdf']

$$$$
120157
     RDKit          3D

 21 23  0  0  0  0  0  0  0  0999 V2000
  -26.6669  -30.6864  -22.2372 O   0  0  0  0  0  0  0  0  0  0  0  0
  -26.7382  -30.8801  -21.0325 C   0  0  0  0  0  0  0  0  0  0  0  0
  -25.8961  -31.6843  -20.3412 O   0  0  0  0  0  0  0  0  0  0  0  0
  -25.0407  -32.5214  -21.1601 C   0  0  0  0  0  0  0  0  0  0  0  0
  -23.8335  -31.7681  -21.7397 C   0  0  0  0  0  0  0  0  0  0  0  0
  -23.0477  -32.5418  -22.6933 N   0  0  0  0  0  0  0  0  0  0  0  0
  -21.6139  -32.6701  -22.5753 C   0  0  0  0  0  0  0  0  0  0  0  0
  -21.1441  -32.9027  -23.9998 C   0  0  0  0  0  0  0  0  0  0  0  0
  -22.3411  -33.5403  -24.6877 C   0  0  0  0  0  0  0  0  0  0  0  0
  -23.5052  -32.9421  -23.9398 C   0  0  0  0  0  0  0  0  0  0  0  0
  -24.6456  -32.8660  -24.3675 O   0  0  0  0  0  0  0  0  0  0  0  0
  -27.8548  -30.3148  -20.2228 C   0  0  0  0  0  0  0  0  0  0  0  0
  -28.9883  -29.9542  -20.9558 C   0  0  0  0  0  0  0  0  0  0  0  0
  -30.1717  -29.7282  -20.2960 C   0  0  0  0  0  0  0  0  0  0  0  0
  -30.2654  -29.7455  -18.9625 N   0  0  0  0  0  0  0  0  0  0  0  0
  -29.1397  -29.8821  -18.2571 C   0  0  0  0  0  0  0  0  0  0  0  0
  -29.2521  -29.7143  -16.8926 C   0  0  0  0  0  0  0  0  0  0  0  0
  -28.1365  -29.7403  -16.0609 C   0  0  0  0  0  0  0  0  0  0  0  0
  -26.8763  -29.9453  -16.6047 C   0  0  0  0  0  0  0  0  0  0  0  0
  -26.7455  -30.1798  -17.9725 C   0  0  0  0  0  0  0  0  0  0  0  0
  -27.8751  -30.1543  -18.8253 C   0  0  0  0  0  0  0  0  0  0  0  0
  1  2  2  0
  2  3  1  0
  3  4  1  0
  4  5  1  0
  5  6  1  0
  6  7  1  0
  7  8  1  0
  8  9  1  0
  9 10  1  0
 10 11  2  0
  2 12  1  0
 12 13  2  0
 13 14  1  0
 14 15  2  0
 15 16  1  0
 16 17  2  0
 17 18  1  0
 18 19  2  0
 19 20  1  0
 20 21  2  0
 10  6  1  0
 21 12  1  0
 21 16  1  0
M  END
>  <HIPPO Pose ID>  (306) 
120157

>  <fragmenstein_outcome>  (306) 
acceptable

>  <energy_score>  (306) 
-76.740299

>  <distance_score>  (306) 
0.719918

>  <fragmenstein_mode>  (306) 
expansion

>  <HIPPO Compound ID>  (306) 
65455

>  <name>  (306) 
GYCHBHLDXPQIHB-UHFFFAOYSA-N

>  <ref_pdb>  (306) 
z1018a

>  <ref_mols>  (306) 
z1018a,z1040a

>  <csv_name>  (306) 
RdRp_knitwork_green_site_rna_tunnel_pure_split4000_batch011.csv

>  <fragmenstein_runtime>  (306) 
3.190186

>  <tags>  (306) 
['Fragmenstein placed']

>  <original ID>  (306) 
GYCHBHLDXPQIHB-UHFFFAOYSA-N

>  <fragmenstein_error>  (306) 
None

>  <original SMILES>  (306) 
O=C(OCCN1CCCC1=O)c1ccnc2ccccc12

>  <inchikey>  (306) 
GYCHBHLDXPQIHB-UHFFFAOYSA-N

>  <SLURM_JOB_NAME>  (306) 
BulkDock.place:Flavi_NS5_RdRp:RdRp_knitwork_green_site_rna_tunnel_pure_split4000_batch011

>  <scratch_subdir>  (306) 
/opt/xchem-fragalysis-2/maxwin/BulkDock/SCRATCH/217082/C65455-P206

>  <alias>  (306) 
None

>  <SLURM_JOB_ID>  (306) 
217082

>  <exports>  (306) 
['/opt/xchem-fragalysis-2/maxwin/BulkDock/OUTPUTS/RdRp_knitwork_green_site_rna_tunnel_pure_split4000_batch011_217082.sdf']

$$$$
120164
     RDKit          3D

 21 23  0  0  0  0  0  0  0  0999 V2000
  -27.4003  -30.3595  -22.5777 O   0  0  0  0  0  0  0  0  0  0  0  0
  -27.3748  -30.8442  -21.4579 C   0  0  0  0  0  0  0  0  0  0  0  0
  -26.5410  -31.8180  -21.0209 O   0  0  0  0  0  0  0  0  0  0  0  0
  -25.7207  -32.4522  -22.0230 C   0  0  0  0  0  0  0  0  0  0  0  0
  -24.3297  -31.8097  -22.1011 C   0  0  0  0  0  0  0  0  0  0  0  0
  -23.3754  -32.5754  -22.8889 N   0  0  0  0  0  0  0  0  0  0  0  0
  -21.9809  -32.6526  -22.5343 C   0  0  0  0  0  0  0  0  0  0  0  0
  -21.2731  -32.8813  -23.8553 C   0  0  0  0  0  0  0  0  0  0  0  0
  -22.3252  -33.5150  -24.7504 C   0  0  0  0  0  0  0  0  0  0  0  0
  -23.6051  -32.9561  -24.2008 C   0  0  0  0  0  0  0  0  0  0  0  0
  -24.6585  -32.9097  -24.8108 O   0  0  0  0  0  0  0  0  0  0  0  0
  -28.3633  -30.4913  -20.4080 C   0  0  0  0  0  0  0  0  0  0  0  0
  -29.6502  -30.2159  -20.8735 C   0  0  0  0  0  0  0  0  0  0  0  0
  -30.6728  -30.1050  -19.9664 C   0  0  0  0  0  0  0  0  0  0  0  0
  -30.4787  -30.1802  -18.6443 N   0  0  0  0  0  0  0  0  0  0  0  0
  -29.2346  -30.3285  -18.1903 C   0  0  0  0  0  0  0  0  0  0  0  0
  -29.0873  -30.3201  -16.8187 C   0  0  0  0  0  0  0  0  0  0  0  0
  -27.8371  -30.4381  -16.2227 C   0  0  0  0  0  0  0  0  0  0  0  0
  -26.7046  -30.5541  -17.0158 C   0  0  0  0  0  0  0  0  0  0  0  0
  -26.8317  -30.5778  -18.4033 C   0  0  0  0  0  0  0  0  0  0  0  0
  -28.1039  -30.4798  -19.0201 C   0  0  0  0  0  0  0  0  0  0  0  0
  1  2  2  0
  2  3  1  0
  3  4  1  0
  4  5  1  0
  5  6  1  0
  6  7  1  0
  7  8  1  0
  8  9  1  0
  9 10  1  0
 10 11  2  0
  2 12  1  0
 12 13  2  0
 13 14  1  0
 14 15  2  0
 15 16  1  0
 16 17  2  0
 17 18  1  0
 18 19  2  0
 19 20  1  0
 20 21  2  0
 10  6  1  0
 21 12  1  0
 21 16  1  0
M  END
>  <HIPPO Pose ID>  (307) 
120164

>  <fragmenstein_outcome>  (307) 
acceptable

>  <energy_score>  (307) 
-81.349776

>  <distance_score>  (307) 
0.917298

>  <fragmenstein_mode>  (307) 
expansion

>  <HIPPO Compound ID>  (307) 
65455

>  <name>  (307) 
GYCHBHLDXPQIHB-UHFFFAOYSA-N

>  <ref_pdb>  (307) 
z1040a

>  <ref_mols>  (307) 
z1018a,z1040a

>  <csv_name>  (307) 
RdRp_knitwork_green_site_rna_tunnel_pure_split4000_batch011.csv

>  <fragmenstein_runtime>  (307) 
3.084632

>  <tags>  (307) 
['Fragmenstein placed']

>  <original ID>  (307) 
GYCHBHLDXPQIHB-UHFFFAOYSA-N

>  <fragmenstein_error>  (307) 
None

>  <original SMILES>  (307) 
O=C(OCCN1CCCC1=O)c1ccnc2ccccc12

>  <inchikey>  (307) 
GYCHBHLDXPQIHB-UHFFFAOYSA-N

>  <SLURM_JOB_NAME>  (307) 
BulkDock.place:Flavi_NS5_RdRp:RdRp_knitwork_green_site_rna_tunnel_pure_split4000_batch011

>  <scratch_subdir>  (307) 
/opt/xchem-fragalysis-2/maxwin/BulkDock/SCRATCH/217082/C65455-P208

>  <alias>  (307) 
None

>  <SLURM_JOB_ID>  (307) 
217082

>  <exports>  (307) 
['/opt/xchem-fragalysis-2/maxwin/BulkDock/OUTPUTS/RdRp_knitwork_green_site_rna_tunnel_pure_split4000_batch011_217082.sdf']

$$$$
120166
     RDKit          3D

 21 23  0  0  0  0  0  0  0  0999 V2000
  -24.7344  -34.2197  -23.9892 C   0  0  0  0  0  0  0  0  0  0  0  0
  -23.7329  -33.3652  -23.2228 C   0  0  1  0  0  0  0  0  0  0  0  0
  -24.2947  -32.1485  -22.6891 O   0  0  0  0  0  0  0  0  0  0  0  0
  -25.4021  -32.1799  -21.8974 C   0  0  0  0  0  0  0  0  0  0  0  0
  -26.1427  -33.1379  -21.7377 O   0  0  0  0  0  0  0  0  0  0  0  0
  -25.5157  -30.8398  -21.2111 C   0  0  0  0  0  0  0  0  0  0  0  0
  -26.8972  -30.4072  -20.8888 C   0  0  0  0  0  0  0  0  0  0  0  0
  -27.4294  -30.0889  -19.6173 C   0  0  0  0  0  0  0  0  0  0  0  0
  -28.7020  -29.6991  -19.6760 N   0  0  0  0  0  0  0  0  0  0  0  0
  -29.0044  -29.8257  -20.9758 N   0  0  0  0  0  0  0  0  0  0  0  0
  -30.3541  -29.6357  -21.4166 C   0  0  0  0  0  0  0  0  0  0  0  0
  -27.9426  -30.1740  -21.7544 C   0  0  0  0  0  0  0  0  0  0  0  0
  -22.9130  -34.0800  -22.1945 C   0  0  0  0  0  0  0  0  0  0  0  0
  -23.0695  -35.3572  -21.6913 C   0  0  0  0  0  0  0  0  0  0  0  0
  -22.1005  -35.6512  -20.7864 O   0  0  0  0  0  0  0  0  0  0  0  0
  -21.3145  -34.5465  -20.6730 C   0  0  0  0  0  0  0  0  0  0  0  0
  -20.2022  -34.4238  -19.8425 C   0  0  0  0  0  0  0  0  0  0  0  0
  -19.5194  -33.2032  -19.8858 C   0  0  0  0  0  0  0  0  0  0  0  0
  -19.9479  -32.1658  -20.7171 C   0  0  0  0  0  0  0  0  0  0  0  0
  -21.0657  -32.3233  -21.5483 C   0  0  0  0  0  0  0  0  0  0  0  0
  -21.7662  -33.5456  -21.5226 C   0  0  0  0  0  0  0  0  0  0  0  0
  2  1  1  1
  2  3  1  0
  3  4  1  0
  4  5  2  0
  4  6  1  0
  6  7  1  0
  7  8  1  0
  8  9  2  0
  9 10  1  0
 10 11  1  0
 10 12  1  0
  2 13  1  0
 13 14  2  0
 14 15  1  0
 15 16  1  0
 16 17  2  0
 17 18  1  0
 18 19  2  0
 19 20  1  0
 20 21  2  0
 12  7  2  0
 21 13  1  0
 21 16  1  0
M  END
>  <HIPPO Pose ID>  (308) 
120166

>  <fragmenstein_outcome>  (308) 
acceptable

>  <energy_score>  (308) 
-21.54941

>  <distance_score>  (308) 
0.642398

>  <fragmenstein_mode>  (308) 
expansion

>  <HIPPO Compound ID>  (308) 
26880

>  <name>  (308) 
GKIDZULUTAMVII-LLVKDONJSA-N

>  <ref_pdb>  (308) 
z0215a

>  <ref_mols>  (308) 
z0215a,3vws-b

>  <csv_name>  (308) 
RdRp_knitwork_green_site_rna_tunnel_pure_split4000_batch001.csv

>  <fragmenstein_runtime>  (308) 
2.401045

>  <tags>  (308) 
['Fragmenstein placed']

>  <original ID>  (308) 
GKIDZULUTAMVII-LLVKDONJSA-N

>  <fragmenstein_error>  (308) 
None

>  <original SMILES>  (308) 
C[C@@H](OC(=O)Cc1cnn(C)c1)c1coc2ccccc12

>  <inchikey>  (308) 
GKIDZULUTAMVII-LLVKDONJSA-N

>  <SLURM_JOB_NAME>  (308) 
BulkDock.place:Flavi_NS5_RdRp:RdRp_knitwork_green_site_rna_tunnel_pure_split4000_batch001

>  <scratch_subdir>  (308) 
/opt/xchem-fragalysis-2/maxwin/BulkDock/SCRATCH/217072/C26880-P104

>  <alias>  (308) 
None

>  <SLURM_JOB_ID>  (308) 
217072

>  <exports>  (308) 
['/opt/xchem-fragalysis-2/maxwin/BulkDock/OUTPUTS/RdRp_knitwork_green_site_rna_tunnel_pure_split4000_batch001_217072.sdf']

$$$$
120169
     RDKit          3D

 22 24  0  0  0  0  0  0  0  0999 V2000
  -26.6446  -30.7011  -22.2221 O   0  0  0  0  0  0  0  0  0  0  0  0
  -26.7114  -30.8918  -21.0169 C   0  0  0  0  0  0  0  0  0  0  0  0
  -25.8654  -31.6928  -20.3264 O   0  0  0  0  0  0  0  0  0  0  0  0
  -25.0128  -32.5294  -21.1487 C   0  0  0  0  0  0  0  0  0  0  0  0
  -23.8126  -31.7729  -21.7383 C   0  0  0  0  0  0  0  0  0  0  0  0
  -23.0306  -32.5458  -22.6955 N   0  0  0  0  0  0  0  0  0  0  0  0
  -21.5963  -32.6726  -22.5842 C   0  0  0  0  0  0  0  0  0  0  0  0
  -21.1331  -32.9066  -24.0106 C   0  0  0  0  0  0  0  0  0  0  0  0
  -22.3332  -33.5450  -24.6925 C   0  0  0  0  0  0  0  0  0  0  0  0
  -23.4941  -32.9471  -23.9395 C   0  0  0  0  0  0  0  0  0  0  0  0
  -24.6363  -32.8722  -24.3622 O   0  0  0  0  0  0  0  0  0  0  0  0
  -27.8240  -30.3281  -20.2021 C   0  0  0  0  0  0  0  0  0  0  0  0
  -28.9590  -29.9761  -20.9291 C   0  0  0  0  0  0  0  0  0  0  0  0
  -30.1241  -29.7674  -20.2468 C   0  0  0  0  0  0  0  0  0  0  0  0
  -31.2798  -29.5405  -20.9083 O   0  0  0  0  0  0  0  0  0  0  0  0
  -30.2390  -29.7789  -18.9238 N   0  0  0  0  0  0  0  0  0  0  0  0
  -29.1077  -29.9005  -18.2274 C   0  0  0  0  0  0  0  0  0  0  0  0
  -29.2138  -29.7284  -16.8632 C   0  0  0  0  0  0  0  0  0  0  0  0
  -28.0929  -29.7463  -16.0387 C   0  0  0  0  0  0  0  0  0  0  0  0
  -26.8342  -29.9453  -16.5891 C   0  0  0  0  0  0  0  0  0  0  0  0
  -26.7083  -30.1813  -17.9569 C   0  0  0  0  0  0  0  0  0  0  0  0
  -27.8417  -30.1651  -18.8034 C   0  0  0  0  0  0  0  0  0  0  0  0
  1  2  2  0
  2  3  1  0
  3  4  1  0
  4  5  1  0
  5  6  1  0
  6  7  1  0
  7  8  1  0
  8  9  1  0
  9 10  1  0
 10 11  2  0
  2 12  1  0
 12 13  2  0
 13 14  1  0
 14 15  1  0
 14 16  2  0
 16 17  1  0
 17 18  2  0
 18 19  1  0
 19 20  2  0
 20 21  1  0
 21 22  2  0
 10  6  1  0
 22 12  1  0
 22 17  1  0
M  END
>  <HIPPO Pose ID>  (309) 
120169

>  <fragmenstein_outcome>  (309) 
acceptable

>  <energy_score>  (309) 
-94.195765

>  <distance_score>  (309) 
0.725938

>  <fragmenstein_mode>  (309) 
expansion

>  <HIPPO Compound ID>  (309) 
65459

>  <name>  (309) 
MVYZOFKEIRIXPV-UHFFFAOYSA-N

>  <ref_pdb>  (309) 
z1018a

>  <ref_mols>  (309) 
z1018a,z1040a

>  <csv_name>  (309) 
RdRp_knitwork_green_site_rna_tunnel_pure_split4000_batch011.csv

>  <fragmenstein_runtime>  (309) 
2.288922

>  <tags>  (309) 
['Fragmenstein placed']

>  <original ID>  (309) 
MVYZOFKEIRIXPV-UHFFFAOYSA-N

>  <fragmenstein_error>  (309) 
None

>  <original SMILES>  (309) 
O=C(OCCN1CCCC1=O)c1cc(O)nc2ccccc12

>  <inchikey>  (309) 
MVYZOFKEIRIXPV-UHFFFAOYSA-N

>  <SLURM_JOB_NAME>  (309) 
BulkDock.place:Flavi_NS5_RdRp:RdRp_knitwork_green_site_rna_tunnel_pure_split4000_batch011

>  <scratch_subdir>  (309) 
/opt/xchem-fragalysis-2/maxwin/BulkDock/SCRATCH/217082/C65459-P206

>  <alias>  (309) 
None

>  <SLURM_JOB_ID>  (309) 
217082

>  <exports>  (309) 
['/opt/xchem-fragalysis-2/maxwin/BulkDock/OUTPUTS/RdRp_knitwork_green_site_rna_tunnel_pure_split4000_batch011_217082.sdf']

$$$$
120179
     RDKit          3D

 22 24  0  0  0  0  0  0  0  0999 V2000
  -27.0647  -30.5727  -22.4678 O   0  0  0  0  0  0  0  0  0  0  0  0
  -27.0923  -30.9679  -21.3125 C   0  0  0  0  0  0  0  0  0  0  0  0
  -26.2645  -31.8870  -20.7631 O   0  0  0  0  0  0  0  0  0  0  0  0
  -25.4285  -32.5944  -21.6981 C   0  0  0  0  0  0  0  0  0  0  0  0
  -24.1485  -31.8213  -22.0308 C   0  0  0  0  0  0  0  0  0  0  0  0
  -23.2438  -32.5667  -22.8891 N   0  0  0  0  0  0  0  0  0  0  0  0
  -21.8366  -32.6829  -22.6128 C   0  0  0  0  0  0  0  0  0  0  0  0
  -21.2184  -32.9186  -23.9762 C   0  0  0  0  0  0  0  0  0  0  0  0
  -22.3342  -33.5311  -24.8083 C   0  0  0  0  0  0  0  0  0  0  0  0
  -23.5707  -32.9624  -24.1747 C   0  0  0  0  0  0  0  0  0  0  0  0
  -24.6664  -32.9208  -24.7052 O   0  0  0  0  0  0  0  0  0  0  0  0
  -28.1469  -30.5477  -20.3581 C   0  0  0  0  0  0  0  0  0  0  0  0
  -29.3579  -30.2258  -20.9581 C   0  0  0  0  0  0  0  0  0  0  0  0
  -30.4499  -30.0651  -20.1591 C   0  0  0  0  0  0  0  0  0  0  0  0
  -31.6540  -29.8198  -20.7204 O   0  0  0  0  0  0  0  0  0  0  0  0
  -30.4389  -30.1299  -18.8330 N   0  0  0  0  0  0  0  0  0  0  0  0
  -29.2540  -30.3114  -18.2475 C   0  0  0  0  0  0  0  0  0  0  0  0
  -29.2485  -30.2783  -16.8680 C   0  0  0  0  0  0  0  0  0  0  0  0
  -28.0697  -30.4163  -16.1433 C   0  0  0  0  0  0  0  0  0  0  0  0
  -26.8649  -30.5842  -16.8116 C   0  0  0  0  0  0  0  0  0  0  0  0
  -26.8463  -30.6369  -18.2038 C   0  0  0  0  0  0  0  0  0  0  0  0
  -28.0423  -30.5155  -18.9512 C   0  0  0  0  0  0  0  0  0  0  0  0
  1  2  2  0
  2  3  1  0
  3  4  1  0
  4  5  1  0
  5  6  1  0
  6  7  1  0
  7  8  1  0
  8  9  1  0
  9 10  1  0
 10 11  2  0
  2 12  1  0
 12 13  2  0
 13 14  1  0
 14 15  1  0
 14 16  2  0
 16 17  1  0
 17 18  2  0
 18 19  1  0
 19 20  2  0
 20 21  1  0
 21 22  2  0
 10  6  1  0
 22 12  1  0
 22 17  1  0
M  END
>  <HIPPO Pose ID>  (310) 
120179

>  <fragmenstein_outcome>  (310) 
acceptable

>  <energy_score>  (310) 
-98.193751

>  <distance_score>  (310) 
0.777462

>  <fragmenstein_mode>  (310) 
expansion

>  <HIPPO Compound ID>  (310) 
65459

>  <name>  (310) 
MVYZOFKEIRIXPV-UHFFFAOYSA-N

>  <ref_pdb>  (310) 
z1040a

>  <ref_mols>  (310) 
z1018a,z1040a

>  <csv_name>  (310) 
RdRp_knitwork_green_site_rna_tunnel_pure_split4000_batch011.csv

>  <fragmenstein_runtime>  (310) 
3.009808

>  <tags>  (310) 
['Fragmenstein placed']

>  <original ID>  (310) 
MVYZOFKEIRIXPV-UHFFFAOYSA-N

>  <fragmenstein_error>  (310) 
None

>  <original SMILES>  (310) 
O=C(OCCN1CCCC1=O)c1cc(O)nc2ccccc12

>  <inchikey>  (310) 
MVYZOFKEIRIXPV-UHFFFAOYSA-N

>  <SLURM_JOB_NAME>  (310) 
BulkDock.place:Flavi_NS5_RdRp:RdRp_knitwork_green_site_rna_tunnel_pure_split4000_batch011

>  <scratch_subdir>  (310) 
/opt/xchem-fragalysis-2/maxwin/BulkDock/SCRATCH/217082/C65459-P208

>  <alias>  (310) 
None

>  <SLURM_JOB_ID>  (310) 
217082

>  <exports>  (310) 
['/opt/xchem-fragalysis-2/maxwin/BulkDock/OUTPUTS/RdRp_knitwork_green_site_rna_tunnel_pure_split4000_batch011_217082.sdf']

$$$$
120182
     RDKit          3D

 22 24  0  0  0  0  0  0  0  0999 V2000
  -31.4142  -30.0370  -20.3166 C   0  0  0  0  0  0  0  0  0  0  0  0
  -30.0128  -30.5021  -20.1143 C   0  0  0  0  0  0  0  0  0  0  0  0
  -28.8806  -29.7190  -20.5414 N   0  0  0  0  0  0  0  0  0  0  0  0
  -27.6181  -30.0292  -20.0732 C   0  0  0  0  0  0  0  0  0  0  0  0
  -26.8657  -30.3044  -21.2014 C   0  0  0  0  0  0  0  0  0  0  0  0
  -25.5648  -31.0399  -21.2710 C   0  0  0  0  0  0  0  0  0  0  0  0
  -24.8876  -30.9820  -22.6340 C   0  0  0  0  0  0  0  0  0  0  0  0
  -25.0605  -30.0646  -23.4340 O   0  0  0  0  0  0  0  0  0  0  0  0
  -23.9851  -31.9541  -22.9048 O   0  0  0  0  0  0  0  0  0  0  0  0
  -24.2558  -33.3511  -22.6709 C   0  0  1  0  0  0  0  0  0  0  0  0
  -24.4095  -33.9924  -24.0457 C   0  0  0  0  0  0  0  0  0  0  0  0
  -23.1791  -34.0144  -21.8643 C   0  0  0  0  0  0  0  0  0  0  0  0
  -23.2063  -35.3223  -21.4100 C   0  0  0  0  0  0  0  0  0  0  0  0
  -22.1045  -35.6180  -20.6796 O   0  0  0  0  0  0  0  0  0  0  0  0
  -21.3428  -34.4929  -20.6413 C   0  0  0  0  0  0  0  0  0  0  0  0
  -20.1301  -34.3673  -19.9638 C   0  0  0  0  0  0  0  0  0  0  0  0
  -19.4805  -33.1338  -20.0609 C   0  0  0  0  0  0  0  0  0  0  0  0
  -20.0350  -32.0893  -20.8013 C   0  0  0  0  0  0  0  0  0  0  0  0
  -21.2562  -32.2484  -21.4733 C   0  0  0  0  0  0  0  0  0  0  0  0
  -21.9391  -33.4779  -21.3822 C   0  0  0  0  0  0  0  0  0  0  0  0
  -27.6707  -29.8267  -22.2560 C   0  0  0  0  0  0  0  0  0  0  0  0
  -28.8518  -29.3783  -21.8363 N   0  0  0  0  0  0  0  0  0  0  0  0
  1  2  1  0
  2  3  1  0
  3  4  1  0
  4  5  2  0
  5  6  1  0
  6  7  1  0
  7  8  2  0
  7  9  1  0
  9 10  1  0
 10 11  1  6
 10 12  1  0
 12 13  2  0
 13 14  1  0
 14 15  1  0
 15 16  2  0
 16 17  1  0
 17 18  2  0
 18 19  1  0
 19 20  2  0
  5 21  1  0
 21 22  2  0
 22  3  1  0
 20 12  1  0
 20 15  1  0
M  END
>  <HIPPO Pose ID>  (311) 
120182

>  <fragmenstein_outcome>  (311) 
acceptable

>  <energy_score>  (311) 
-11.562223

>  <distance_score>  (311) 
0.730288

>  <fragmenstein_mode>  (311) 
expansion

>  <HIPPO Compound ID>  (311) 
26881

>  <name>  (311) 
JEBBWQNPGSNQAA-LBPRGKRZSA-N

>  <ref_pdb>  (311) 
z0215a

>  <ref_mols>  (311) 
z0215a,3vws-b

>  <csv_name>  (311) 
RdRp_knitwork_green_site_rna_tunnel_pure_split4000_batch001.csv

>  <fragmenstein_runtime>  (311) 
3.495062

>  <tags>  (311) 
['Fragmenstein placed']

>  <original ID>  (311) 
JEBBWQNPGSNQAA-LBPRGKRZSA-N

>  <fragmenstein_error>  (311) 
None

>  <original SMILES>  (311) 
CCn1cc(CC(=O)O[C@@H](C)c2coc3ccccc23)cn1

>  <inchikey>  (311) 
JEBBWQNPGSNQAA-LBPRGKRZSA-N

>  <SLURM_JOB_NAME>  (311) 
BulkDock.place:Flavi_NS5_RdRp:RdRp_knitwork_green_site_rna_tunnel_pure_split4000_batch001

>  <scratch_subdir>  (311) 
/opt/xchem-fragalysis-2/maxwin/BulkDock/SCRATCH/217072/C26881-P104

>  <alias>  (311) 
None

>  <SLURM_JOB_ID>  (311) 
217072

>  <exports>  (311) 
['/opt/xchem-fragalysis-2/maxwin/BulkDock/OUTPUTS/RdRp_knitwork_green_site_rna_tunnel_pure_split4000_batch001_217072.sdf']

$$$$
120208
     RDKit          3D

 23 25  0  0  0  0  0  0  0  0999 V2000
  -30.6854  -29.0410  -22.4474 C   0  0  0  0  0  0  0  0  0  0  0  0
  -29.4252  -29.4209  -21.9418 O   0  0  0  0  0  0  0  0  0  0  0  0
  -29.3382  -29.8084  -20.6408 C   0  0  0  0  0  0  0  0  0  0  0  0
  -30.3874  -29.7381  -19.7449 C   0  0  0  0  0  0  0  0  0  0  0  0
  -30.2415  -29.8662  -18.4200 N   0  0  0  0  0  0  0  0  0  0  0  0
  -29.0029  -29.9532  -17.9507 C   0  0  0  0  0  0  0  0  0  0  0  0
  -28.8788  -29.8260  -16.5846 C   0  0  0  0  0  0  0  0  0  0  0  0
  -27.6339  -29.8225  -15.9670 C   0  0  0  0  0  0  0  0  0  0  0  0
  -26.4856  -29.9513  -16.7317 C   0  0  0  0  0  0  0  0  0  0  0  0
  -26.5939  -30.1245  -18.1097 C   0  0  0  0  0  0  0  0  0  0  0  0
  -27.8572  -30.1314  -18.7571 C   0  0  0  0  0  0  0  0  0  0  0  0
  -28.0822  -30.2152  -20.1534 C   0  0  0  0  0  0  0  0  0  0  0  0
  -27.0492  -30.7131  -21.1642 C   0  0  0  0  0  0  0  0  0  0  0  0
  -27.0933  -30.2498  -22.2298 O   0  0  0  0  0  0  0  0  0  0  0  0
  -26.1280  -31.8021  -20.5888 N   0  0  0  0  0  0  0  0  0  0  0  0
  -25.1205  -32.6250  -21.2362 C   0  0  0  0  0  0  0  0  0  0  0  0
  -24.0113  -31.7950  -21.9069 C   0  0  0  0  0  0  0  0  0  0  0  0
  -23.1812  -32.5518  -22.8329 N   0  0  0  0  0  0  0  0  0  0  0  0
  -21.7576  -32.7067  -22.6472 C   0  0  0  0  0  0  0  0  0  0  0  0
  -21.2355  -32.9534  -24.0512 C   0  0  0  0  0  0  0  0  0  0  0  0
  -22.4105  -33.5940  -24.7773 C   0  0  0  0  0  0  0  0  0  0  0  0
  -23.6027  -32.9899  -24.0780 C   0  0  0  0  0  0  0  0  0  0  0  0
  -24.7354  -32.9392  -24.5333 O   0  0  0  0  0  0  0  0  0  0  0  0
  1  2  1  0
  2  3  1  0
  3  4  2  0
  4  5  1  0
  5  6  2  0
  6  7  1  0
  7  8  2  0
  8  9  1  0
  9 10  2  0
 10 11  1  0
 11 12  2  0
 12 13  1  0
 13 14  2  0
 13 15  1  0
 15 16  1  0
 16 17  1  0
 17 18  1  0
 18 19  1  0
 19 20  1  0
 20 21  1  0
 21 22  1  0
 22 23  2  0
 12  3  1  0
 22 18  1  0
 11  6  1  0
M  END
>  <HIPPO Pose ID>  (312) 
120208

>  <fragmenstein_outcome>  (312) 
acceptable

>  <energy_score>  (312) 
-48.205428

>  <distance_score>  (312) 
0.861773

>  <fragmenstein_mode>  (312) 
expansion

>  <HIPPO Compound ID>  (312) 
65467

>  <name>  (312) 
BWIWFZCCKNCRTC-UHFFFAOYSA-N

>  <ref_pdb>  (312) 
z1018a

>  <ref_mols>  (312) 
z1018a,z1040a

>  <csv_name>  (312) 
RdRp_knitwork_green_site_rna_tunnel_pure_split4000_batch011.csv

>  <fragmenstein_runtime>  (312) 
6.537995

>  <tags>  (312) 
['Fragmenstein placed']

>  <original ID>  (312) 
BWIWFZCCKNCRTC-UHFFFAOYSA-N

>  <fragmenstein_error>  (312) 
None

>  <original SMILES>  (312) 
COc1cnc2ccccc2c1C(=O)NCCN1CCCC1=O

>  <inchikey>  (312) 
BWIWFZCCKNCRTC-UHFFFAOYSA-N

>  <SLURM_JOB_NAME>  (312) 
BulkDock.place:Flavi_NS5_RdRp:RdRp_knitwork_green_site_rna_tunnel_pure_split4000_batch011

>  <scratch_subdir>  (312) 
/opt/xchem-fragalysis-2/maxwin/BulkDock/SCRATCH/217082/C65467-P206

>  <alias>  (312) 
None

>  <SLURM_JOB_ID>  (312) 
217082

>  <exports>  (312) 
['/opt/xchem-fragalysis-2/maxwin/BulkDock/OUTPUTS/RdRp_knitwork_green_site_rna_tunnel_pure_split4000_batch011_217082.sdf']

$$$$
120261
     RDKit          3D

 22 25  0  0  0  0  0  0  0  0999 V2000
  -24.9363  -32.5823  -24.4115 O   0  0  0  0  0  0  0  0  0  0  0  0
  -23.8345  -32.8262  -23.9452 C   0  0  0  0  0  0  0  0  0  0  0  0
  -22.6974  -33.4520  -24.7171 C   0  0  0  0  0  0  0  0  0  0  0  0
  -21.4826  -32.9958  -23.9289 C   0  0  0  0  0  0  0  0  0  0  0  0
  -21.9947  -32.9203  -22.5036 C   0  0  0  0  0  0  0  0  0  0  0  0
  -23.4105  -32.6310  -22.6403 N   0  0  0  0  0  0  0  0  0  0  0  0
  -24.0959  -31.8575  -21.6080 C   0  0  2  0  0  0  0  0  0  0  0  0
  -24.1280  -32.5380  -20.2553 C   0  0  0  0  0  0  0  0  0  0  0  0
  -25.0375  -31.6092  -19.4475 C   0  0  0  0  0  0  0  0  0  0  0  0
  -25.9794  -30.9796  -20.4083 N   0  0  0  0  0  0  0  0  0  0  0  0
  -27.2614  -30.5400  -20.0117 C   0  0  0  0  0  0  0  0  0  0  0  0
  -28.3104  -30.2155  -20.8957 C   0  0  0  0  0  0  0  0  0  0  0  0
  -28.0414  -29.5325  -22.6287 Br  0  0  0  0  0  0  0  0  0  0  0  0
  -29.6282  -30.0755  -20.4516 C   0  0  0  0  0  0  0  0  0  0  0  0
  -29.9929  -30.1186  -19.1717 N   0  0  0  0  0  0  0  0  0  0  0  0
  -28.9995  -30.1075  -18.2978 C   0  0  0  0  0  0  0  0  0  0  0  0
  -29.3964  -29.8805  -16.9943 C   0  0  0  0  0  0  0  0  0  0  0  0
  -28.4720  -29.7287  -15.9708 C   0  0  0  0  0  0  0  0  0  0  0  0
  -27.1232  -29.7681  -16.2692 C   0  0  0  0  0  0  0  0  0  0  0  0
  -26.7106  -30.0090  -17.5806 C   0  0  0  0  0  0  0  0  0  0  0  0
  -27.6189  -30.2560  -18.6414 C   0  0  0  0  0  0  0  0  0  0  0  0
  -25.5980  -31.5040  -21.7491 C   0  0  0  0  0  0  0  0  0  0  0  0
  1  2  2  0
  2  3  1  0
  3  4  1  0
  4  5  1  0
  5  6  1  0
  7  6  1  6
  7  8  1  0
  8  9  1  0
  9 10  1  0
 10 11  1  0
 11 12  2  0
 12 13  1  0
 12 14  1  0
 14 15  2  0
 15 16  1  0
 16 17  2  0
 17 18  1  0
 18 19  2  0
 19 20  1  0
 20 21  2  0
 10 22  1  0
  6  2  1  0
 22  7  1  0
 21 11  1  0
 21 16  1  0
M  END
>  <HIPPO Pose ID>  (313) 
120261

>  <fragmenstein_outcome>  (313) 
acceptable

>  <energy_score>  (313) 
-18.52446

>  <distance_score>  (313) 
0.939897

>  <fragmenstein_mode>  (313) 
expansion

>  <HIPPO Compound ID>  (313) 
65515

>  <name>  (313) 
JQYMVSWSAPDAIV-GFCCVEGCSA-N

>  <ref_pdb>  (313) 
z1018a

>  <ref_mols>  (313) 
z1018a,z1040a

>  <csv_name>  (313) 
RdRp_knitwork_green_site_rna_tunnel_pure_split4000_batch011.csv

>  <fragmenstein_runtime>  (313) 
3.623691

>  <tags>  (313) 
['Fragmenstein placed']

>  <original ID>  (313) 
JQYMVSWSAPDAIV-GFCCVEGCSA-N

>  <fragmenstein_error>  (313) 
None

>  <original SMILES>  (313) 
O=C1CCCN1[C@@H]1CCN(c2c(Br)cnc3ccccc23)C1

>  <inchikey>  (313) 
JQYMVSWSAPDAIV-GFCCVEGCSA-N

>  <SLURM_JOB_NAME>  (313) 
BulkDock.place:Flavi_NS5_RdRp:RdRp_knitwork_green_site_rna_tunnel_pure_split4000_batch011

>  <scratch_subdir>  (313) 
/opt/xchem-fragalysis-2/maxwin/BulkDock/SCRATCH/217082/C65515-P206

>  <alias>  (313) 
None

>  <SLURM_JOB_ID>  (313) 
217082

>  <exports>  (313) 
['/opt/xchem-fragalysis-2/maxwin/BulkDock/OUTPUTS/RdRp_knitwork_green_site_rna_tunnel_pure_split4000_batch011_217082.sdf']

$$$$
120274
     RDKit          3D

 22 25  0  0  0  0  0  0  0  0999 V2000
  -24.7591  -33.1538  -24.5900 O   0  0  0  0  0  0  0  0  0  0  0  0
  -23.5812  -33.1157  -24.2740 C   0  0  0  0  0  0  0  0  0  0  0  0
  -22.4573  -33.7552  -25.0532 C   0  0  0  0  0  0  0  0  0  0  0  0
  -21.2160  -33.0761  -24.4931 C   0  0  0  0  0  0  0  0  0  0  0  0
  -21.6094  -32.7248  -23.0735 C   0  0  0  0  0  0  0  0  0  0  0  0
  -23.0369  -32.5115  -23.1578 N   0  0  0  0  0  0  0  0  0  0  0  0
  -23.7561  -31.9210  -22.0432 C   0  0  2  0  0  0  0  0  0  0  0  0
  -23.9321  -32.8343  -20.8440 C   0  0  0  0  0  0  0  0  0  0  0  0
  -24.8302  -31.9722  -19.9543 C   0  0  0  0  0  0  0  0  0  0  0  0
  -25.6623  -31.1510  -20.8727 N   0  0  0  0  0  0  0  0  0  0  0  0
  -26.9107  -30.6430  -20.5165 C   0  0  0  0  0  0  0  0  0  0  0  0
  -27.8638  -30.2479  -21.4622 C   0  0  0  0  0  0  0  0  0  0  0  0
  -29.1407  -29.8298  -21.0883 C   0  0  0  0  0  0  0  0  0  0  0  0
  -29.5764  -29.8035  -19.8319 N   0  0  0  0  0  0  0  0  0  0  0  0
  -28.6499  -30.0056  -18.9075 C   0  0  0  0  0  0  0  0  0  0  0  0
  -29.0657  -29.8133  -17.6195 C   0  0  0  0  0  0  0  0  0  0  0  0
  -28.1339  -29.8285  -16.6007 C   0  0  0  0  0  0  0  0  0  0  0  0
  -28.6900  -29.7696  -14.8467 Br  0  0  0  0  0  0  0  0  0  0  0  0
  -26.7834  -29.9526  -16.8340 C   0  0  0  0  0  0  0  0  0  0  0  0
  -26.3734  -30.2149  -18.1204 C   0  0  0  0  0  0  0  0  0  0  0  0
  -27.2910  -30.3387  -19.1830 C   0  0  0  0  0  0  0  0  0  0  0  0
  -25.2246  -31.4863  -22.2397 C   0  0  0  0  0  0  0  0  0  0  0  0
  1  2  2  0
  2  3  1  0
  3  4  1  0
  4  5  1  0
  5  6  1  0
  7  6  1  6
  7  8  1  0
  8  9  1  0
  9 10  1  0
 10 11  1  0
 11 12  2  0
 12 13  1  0
 13 14  2  0
 14 15  1  0
 15 16  2  0
 16 17  1  0
 17 18  1  0
 17 19  2  0
 19 20  1  0
 20 21  2  0
 10 22  1  0
  6  2  1  0
 22  7  1  0
 21 11  1  0
 21 15  1  0
M  END
>  <HIPPO Pose ID>  (314) 
120274

>  <fragmenstein_outcome>  (314) 
acceptable

>  <energy_score>  (314) 
-23.136662

>  <distance_score>  (314) 
0.979014

>  <fragmenstein_mode>  (314) 
expansion

>  <HIPPO Compound ID>  (314) 
65520

>  <name>  (314) 
UOHRLQONFUKTJH-CYBMUJFWSA-N

>  <ref_pdb>  (314) 
z1018a

>  <ref_mols>  (314) 
z1018a,z1040a

>  <csv_name>  (314) 
RdRp_knitwork_green_site_rna_tunnel_pure_split4000_batch011.csv

>  <fragmenstein_runtime>  (314) 
3.50426

>  <tags>  (314) 
['Fragmenstein placed']

>  <original ID>  (314) 
UOHRLQONFUKTJH-CYBMUJFWSA-N

>  <fragmenstein_error>  (314) 
None

>  <original SMILES>  (314) 
O=C1CCCN1[C@@H]1CCN(c2ccnc3cc(Br)ccc23)C1

>  <inchikey>  (314) 
UOHRLQONFUKTJH-CYBMUJFWSA-N

>  <SLURM_JOB_NAME>  (314) 
BulkDock.place:Flavi_NS5_RdRp:RdRp_knitwork_green_site_rna_tunnel_pure_split4000_batch011

>  <scratch_subdir>  (314) 
/opt/xchem-fragalysis-2/maxwin/BulkDock/SCRATCH/217082/C65520-P206

>  <alias>  (314) 
None

>  <SLURM_JOB_ID>  (314) 
217082

>  <exports>  (314) 
['/opt/xchem-fragalysis-2/maxwin/BulkDock/OUTPUTS/RdRp_knitwork_green_site_rna_tunnel_pure_split4000_batch011_217082.sdf']

$$$$
120287
     RDKit          3D

 22 25  0  0  0  0  0  0  0  0999 V2000
  -24.9664  -33.1620  -24.5202 O   0  0  0  0  0  0  0  0  0  0  0  0
  -23.8041  -33.0462  -24.1753 C   0  0  0  0  0  0  0  0  0  0  0  0
  -22.6225  -33.6185  -24.9199 C   0  0  0  0  0  0  0  0  0  0  0  0
  -21.4249  -32.9809  -24.2301 C   0  0  0  0  0  0  0  0  0  0  0  0
  -21.9270  -32.6807  -22.8370 C   0  0  0  0  0  0  0  0  0  0  0  0
  -23.3349  -32.4303  -23.0319 N   0  0  0  0  0  0  0  0  0  0  0  0
  -24.1524  -31.9725  -21.9248 C   0  0  2  0  0  0  0  0  0  0  0  0
  -24.5106  -33.0746  -20.9412 C   0  0  0  0  0  0  0  0  0  0  0  0
  -25.5124  -32.3824  -20.0161 C   0  0  0  0  0  0  0  0  0  0  0  0
  -26.0565  -31.2338  -20.7835 N   0  0  0  0  0  0  0  0  0  0  0  0
  -27.3182  -30.7453  -20.4284 C   0  0  0  0  0  0  0  0  0  0  0  0
  -28.2734  -30.4130  -21.3885 C   0  0  0  0  0  0  0  0  0  0  0  0
  -29.5692  -30.0987  -21.0001 C   0  0  0  0  0  0  0  0  0  0  0  0
  -30.0044  -30.1385  -19.7347 N   0  0  0  0  0  0  0  0  0  0  0  0
  -29.0965  -30.3795  -18.7924 C   0  0  0  0  0  0  0  0  0  0  0  0
  -29.5528  -30.4659  -17.4907 C   0  0  0  0  0  0  0  0  0  0  0  0
  -28.6686  -30.6833  -16.4432 C   0  0  0  0  0  0  0  0  0  0  0  0
  -29.3191  -31.1292  -14.7334 Br  0  0  0  0  0  0  0  0  0  0  0  0
  -27.3034  -30.6578  -16.6620 C   0  0  0  0  0  0  0  0  0  0  0  0
  -26.8374  -30.5771  -17.9681 C   0  0  0  0  0  0  0  0  0  0  0  0
  -27.7215  -30.5737  -19.0700 C   0  0  0  0  0  0  0  0  0  0  0  0
  -25.5638  -31.3811  -22.1766 C   0  0  0  0  0  0  0  0  0  0  0  0
  1  2  2  0
  2  3  1  0
  3  4  1  0
  4  5  1  0
  5  6  1  0
  7  6  1  6
  7  8  1  0
  8  9  1  0
  9 10  1  0
 10 11  1  0
 11 12  2  0
 12 13  1  0
 13 14  2  0
 14 15  1  0
 15 16  2  0
 16 17  1  0
 17 18  1  0
 17 19  2  0
 19 20  1  0
 20 21  2  0
 10 22  1  0
  6  2  1  0
 22  7  1  0
 21 11  1  0
 21 15  1  0
M  END
>  <HIPPO Pose ID>  (315) 
120287

>  <fragmenstein_outcome>  (315) 
acceptable

>  <energy_score>  (315) 
-28.693925

>  <distance_score>  (315) 
0.833737

>  <fragmenstein_mode>  (315) 
expansion

>  <HIPPO Compound ID>  (315) 
65520

>  <name>  (315) 
UOHRLQONFUKTJH-CYBMUJFWSA-N

>  <ref_pdb>  (315) 
z1040a

>  <ref_mols>  (315) 
z1018a,z1040a

>  <csv_name>  (315) 
RdRp_knitwork_green_site_rna_tunnel_pure_split4000_batch011.csv

>  <fragmenstein_runtime>  (315) 
2.925489

>  <tags>  (315) 
['Fragmenstein placed']

>  <original ID>  (315) 
UOHRLQONFUKTJH-CYBMUJFWSA-N

>  <fragmenstein_error>  (315) 
None

>  <original SMILES>  (315) 
O=C1CCCN1[C@@H]1CCN(c2ccnc3cc(Br)ccc23)C1

>  <inchikey>  (315) 
UOHRLQONFUKTJH-CYBMUJFWSA-N

>  <SLURM_JOB_NAME>  (315) 
BulkDock.place:Flavi_NS5_RdRp:RdRp_knitwork_green_site_rna_tunnel_pure_split4000_batch011

>  <scratch_subdir>  (315) 
/opt/xchem-fragalysis-2/maxwin/BulkDock/SCRATCH/217082/C65520-P208

>  <alias>  (315) 
None

>  <SLURM_JOB_ID>  (315) 
217082

>  <exports>  (315) 
['/opt/xchem-fragalysis-2/maxwin/BulkDock/OUTPUTS/RdRp_knitwork_green_site_rna_tunnel_pure_split4000_batch011_217082.sdf']

$$$$
120472
     RDKit          3D

 22 25  0  0  0  0  0  0  0  0999 V2000
  -24.4673  -33.6854  -24.0548 O   0  0  0  0  0  0  0  0  0  0  0  0
  -23.3094  -33.3134  -23.9367 C   0  0  0  0  0  0  0  0  0  0  0  0
  -22.2397  -33.5604  -24.9731 C   0  0  0  0  0  0  0  0  0  0  0  0
  -21.0628  -32.7360  -24.4812 C   0  0  0  0  0  0  0  0  0  0  0  0
  -21.2875  -32.6312  -22.9895 C   0  0  0  0  0  0  0  0  0  0  0  0
  -22.7212  -32.6713  -22.8509 N   0  0  0  0  0  0  0  0  0  0  0  0
  -23.3199  -32.6121  -21.5263 C   0  0  0  0  0  0  0  0  0  0  0  0
  -24.6110  -31.8778  -21.4820 C   0  0  0  0  0  0  0  0  0  0  0  0
  -25.4551  -31.6478  -20.4097 C   0  0  0  0  0  0  0  0  0  0  0  0
  -26.5044  -30.9219  -20.9242 N   0  0  0  0  0  0  0  0  0  0  0  0
  -27.6641  -30.3562  -20.3209 C   0  0  0  0  0  0  0  0  0  0  0  0
  -28.6880  -29.9500  -21.1896 C   0  0  0  0  0  0  0  0  0  0  0  0
  -29.9564  -29.6657  -20.7119 C   0  0  0  0  0  0  0  0  0  0  0  0
  -30.1894  -29.7187  -19.3492 C   0  0  0  0  0  0  0  0  0  0  0  0
  -29.1553  -29.8966  -18.4500 C   0  0  0  0  0  0  0  0  0  0  0  0
  -29.4557  -29.7298  -17.1533 N   0  0  0  0  0  0  0  0  0  0  0  0
  -28.4469  -29.7276  -16.2639 C   0  0  0  0  0  0  0  0  0  0  0  0
  -27.1252  -29.8976  -16.6096 C   0  0  0  0  0  0  0  0  0  0  0  0
  -26.8281  -30.1428  -17.9455 C   0  0  0  0  0  0  0  0  0  0  0  0
  -27.8481  -30.1777  -18.9241 C   0  0  0  0  0  0  0  0  0  0  0  0
  -26.3451  -30.8411  -22.2661 N   0  0  0  0  0  0  0  0  0  0  0  0
  -25.1645  -31.3221  -22.5955 N   0  0  0  0  0  0  0  0  0  0  0  0
  1  2  2  0
  2  3  1  0
  3  4  1  0
  4  5  1  0
  5  6  1  0
  6  7  1  0
  7  8  1  0
  8  9  2  0
  9 10  1  0
 10 11  1  0
 11 12  2  0
 12 13  1  0
 13 14  2  0
 14 15  1  0
 15 16  2  0
 16 17  1  0
 17 18  2  0
 18 19  1  0
 19 20  2  0
 10 21  1  0
 21 22  2  0
  6  2  1  0
 22  8  1  0
 20 11  1  0
 20 15  1  0
M  END
>  <HIPPO Pose ID>  (316) 
120472

>  <fragmenstein_outcome>  (316) 
acceptable

>  <energy_score>  (316) 
-28.891926

>  <distance_score>  (316) 
0.846621

>  <fragmenstein_mode>  (316) 
expansion

>  <HIPPO Compound ID>  (316) 
65564

>  <name>  (316) 
JTPJDODAKKXDLW-UHFFFAOYSA-N

>  <ref_pdb>  (316) 
z1018a

>  <ref_mols>  (316) 
z1018a,z1040a

>  <csv_name>  (316) 
RdRp_knitwork_green_site_rna_tunnel_pure_split4000_batch011.csv

>  <fragmenstein_runtime>  (316) 
3.064345

>  <tags>  (316) 
['Fragmenstein placed']

>  <original ID>  (316) 
JTPJDODAKKXDLW-UHFFFAOYSA-N

>  <fragmenstein_error>  (316) 
None

>  <original SMILES>  (316) 
O=C1CCCN1Cc1cn(-c2cccc3ncccc23)nn1

>  <inchikey>  (316) 
JTPJDODAKKXDLW-UHFFFAOYSA-N

>  <SLURM_JOB_NAME>  (316) 
BulkDock.place:Flavi_NS5_RdRp:RdRp_knitwork_green_site_rna_tunnel_pure_split4000_batch011

>  <scratch_subdir>  (316) 
/opt/xchem-fragalysis-2/maxwin/BulkDock/SCRATCH/217082/C65564-P206

>  <alias>  (316) 
None

>  <SLURM_JOB_ID>  (316) 
217082

>  <exports>  (316) 
['/opt/xchem-fragalysis-2/maxwin/BulkDock/OUTPUTS/RdRp_knitwork_green_site_rna_tunnel_pure_split4000_batch011_217082.sdf']

$$$$
120475
     RDKit          3D

 22 25  0  0  0  0  0  0  0  0999 V2000
  -24.3991  -32.5840  -24.9272 O   0  0  0  0  0  0  0  0  0  0  0  0
  -23.3822  -32.9857  -24.3897 C   0  0  0  0  0  0  0  0  0  0  0  0
  -22.2822  -33.6876  -25.1314 C   0  0  0  0  0  0  0  0  0  0  0  0
  -21.0774  -33.1957  -24.3547 C   0  0  0  0  0  0  0  0  0  0  0  0
  -21.5742  -33.1897  -22.9288 C   0  0  0  0  0  0  0  0  0  0  0  0
  -22.9642  -32.8288  -23.0559 N   0  0  0  0  0  0  0  0  0  0  0  0
  -23.4692  -31.7049  -22.2997 C   0  0  0  0  0  0  0  0  0  0  0  0
  -24.8538  -31.8643  -21.8066 C   0  0  0  0  0  0  0  0  0  0  0  0
  -25.4355  -31.3093  -20.6825 C   0  0  0  0  0  0  0  0  0  0  0  0
  -26.7817  -31.3775  -20.9331 N   0  0  0  0  0  0  0  0  0  0  0  0
  -27.8837  -30.8029  -20.2624 C   0  0  0  0  0  0  0  0  0  0  0  0
  -28.9543  -30.4339  -21.0907 C   0  0  0  0  0  0  0  0  0  0  0  0
  -30.1689  -30.0539  -20.5649 C   0  0  0  0  0  0  0  0  0  0  0  0
  -30.3071  -30.0152  -19.1913 C   0  0  0  0  0  0  0  0  0  0  0  0
  -29.2414  -30.2343  -18.3385 C   0  0  0  0  0  0  0  0  0  0  0  0
  -29.4854  -30.0458  -17.0345 N   0  0  0  0  0  0  0  0  0  0  0  0
  -28.4891  -30.2671  -16.1618 C   0  0  0  0  0  0  0  0  0  0  0  0
  -27.2341  -30.6904  -16.5339 C   0  0  0  0  0  0  0  0  0  0  0  0
  -26.9881  -30.8982  -17.8862 C   0  0  0  0  0  0  0  0  0  0  0  0
  -27.9862  -30.6421  -18.8558 C   0  0  0  0  0  0  0  0  0  0  0  0
  -26.9917  -32.0567  -22.0826 N   0  0  0  0  0  0  0  0  0  0  0  0
  -25.8277  -32.3915  -22.5952 N   0  0  0  0  0  0  0  0  0  0  0  0
  1  2  2  0
  2  3  1  0
  3  4  1  0
  4  5  1  0
  5  6  1  0
  6  7  1  0
  7  8  1  0
  8  9  2  0
  9 10  1  0
 10 11  1  0
 11 12  2  0
 12 13  1  0
 13 14  2  0
 14 15  1  0
 15 16  2  0
 16 17  1  0
 17 18  2  0
 18 19  1  0
 19 20  2  0
 10 21  1  0
 21 22  2  0
  6  2  1  0
 22  8  1  0
 20 11  1  0
 20 15  1  0
M  END
>  <HIPPO Pose ID>  (317) 
120475

>  <fragmenstein_outcome>  (317) 
acceptable

>  <energy_score>  (317) 
-19.511077

>  <distance_score>  (317) 
0.934754

>  <fragmenstein_mode>  (317) 
expansion

>  <HIPPO Compound ID>  (317) 
65564

>  <name>  (317) 
JTPJDODAKKXDLW-UHFFFAOYSA-N

>  <ref_pdb>  (317) 
z1040a

>  <ref_mols>  (317) 
z1018a,z1040a

>  <csv_name>  (317) 
RdRp_knitwork_green_site_rna_tunnel_pure_split4000_batch011.csv

>  <fragmenstein_runtime>  (317) 
2.912443

>  <tags>  (317) 
['Fragmenstein placed']

>  <original ID>  (317) 
JTPJDODAKKXDLW-UHFFFAOYSA-N

>  <fragmenstein_error>  (317) 
None

>  <original SMILES>  (317) 
O=C1CCCN1Cc1cn(-c2cccc3ncccc23)nn1

>  <inchikey>  (317) 
JTPJDODAKKXDLW-UHFFFAOYSA-N

>  <SLURM_JOB_NAME>  (317) 
BulkDock.place:Flavi_NS5_RdRp:RdRp_knitwork_green_site_rna_tunnel_pure_split4000_batch011

>  <scratch_subdir>  (317) 
/opt/xchem-fragalysis-2/maxwin/BulkDock/SCRATCH/217082/C65564-P208

>  <alias>  (317) 
None

>  <SLURM_JOB_ID>  (317) 
217082

>  <exports>  (317) 
['/opt/xchem-fragalysis-2/maxwin/BulkDock/OUTPUTS/RdRp_knitwork_green_site_rna_tunnel_pure_split4000_batch011_217082.sdf']

$$$$
120532
     RDKit          3D

 22 24  0  0  0  0  0  0  0  0999 V2000
  -28.1333  -29.8168  -18.2385 C   0  0  0  0  0  0  0  0  0  0  0  0
  -28.1650  -29.8361  -19.7241 C   0  0  0  0  0  0  0  0  0  0  0  0
  -29.2620  -29.4194  -20.3627 N   0  0  0  0  0  0  0  0  0  0  0  0
  -28.9867  -29.6157  -21.6556 N   0  0  0  0  0  0  0  0  0  0  0  0
  -27.7290  -30.0906  -21.8748 C   0  0  0  0  0  0  0  0  0  0  0  0
  -27.1554  -30.2720  -20.6319 C   0  0  0  0  0  0  0  0  0  0  0  0
  -25.8285  -30.8196  -20.2573 C   0  0  0  0  0  0  0  0  0  0  0  0
  -25.1169  -31.3196  -21.3905 N   0  0  0  0  0  0  0  0  0  0  0  0
  -25.2346  -32.6756  -22.1359 C   0  0  0  0  0  0  0  0  0  0  0  0
  -25.8760  -33.6201  -21.8912 O   0  0  0  0  0  0  0  0  0  0  0  0
  -24.2100  -32.6038  -23.2983 C   0  0  2  0  0  0  0  0  0  0  0  0
  -24.9115  -32.2241  -24.5353 N   0  0  0  0  0  0  0  0  0  0  0  0
  -23.5119  -33.9528  -23.4707 C   0  0  0  0  0  0  0  0  0  0  0  0
  -22.7117  -34.3873  -22.2839 C   0  0  0  0  0  0  0  0  0  0  0  0
  -22.8692  -35.5805  -21.6047 C   0  0  0  0  0  0  0  0  0  0  0  0
  -21.9640  -35.6975  -20.6037 O   0  0  0  0  0  0  0  0  0  0  0  0
  -21.2245  -34.5572  -20.6044 C   0  0  0  0  0  0  0  0  0  0  0  0
  -20.1791  -34.2799  -19.7263 C   0  0  0  0  0  0  0  0  0  0  0  0
  -19.5355  -33.0500  -19.8866 C   0  0  0  0  0  0  0  0  0  0  0  0
  -19.9313  -32.1572  -20.8836 C   0  0  0  0  0  0  0  0  0  0  0  0
  -20.9685  -32.4766  -21.7724 C   0  0  0  0  0  0  0  0  0  0  0  0
  -21.6408  -33.7062  -21.6226 C   0  0  0  0  0  0  0  0  0  0  0  0
  1  2  1  0
  2  3  2  0
  3  4  1  0
  4  5  1  0
  5  6  2  0
  6  7  1  0
  7  8  1  0
  8  9  1  0
  9 10  2  0
  9 11  1  0
 11 12  1  6
 11 13  1  0
 13 14  1  0
 14 15  2  0
 15 16  1  0
 16 17  1  0
 17 18  2  0
 18 19  1  0
 19 20  2  0
 20 21  1  0
 21 22  2  0
  6  2  1  0
 22 14  1  0
 22 17  1  0
M  END
>  <HIPPO Pose ID>  (318) 
120532

>  <fragmenstein_outcome>  (318) 
acceptable

>  <energy_score>  (318) 
-48.13492

>  <distance_score>  (318) 
0.765096

>  <fragmenstein_mode>  (318) 
expansion

>  <HIPPO Compound ID>  (318) 
28464

>  <name>  (318) 
BBOFTLAAXMIRPC-CQSZACIVSA-N

>  <ref_pdb>  (318) 
z0215a

>  <ref_mols>  (318) 
z0215a,3vws-b

>  <csv_name>  (318) 
RdRp_knitwork_green_site_rna_tunnel_pure_split4000_batch001.csv

>  <fragmenstein_runtime>  (318) 
4.530421

>  <tags>  (318) 
['Fragmenstein placed']

>  <original ID>  (318) 
BBOFTLAAXMIRPC-CQSZACIVSA-N

>  <fragmenstein_error>  (318) 
None

>  <original SMILES>  (318) 
Cc1n[nH]cc1CNC(=O)[C@H](N)Cc1coc2ccccc12

>  <inchikey>  (318) 
BBOFTLAAXMIRPC-CQSZACIVSA-N

>  <SLURM_JOB_NAME>  (318) 
BulkDock.place:Flavi_NS5_RdRp:RdRp_knitwork_green_site_rna_tunnel_pure_split4000_batch001

>  <scratch_subdir>  (318) 
/opt/xchem-fragalysis-2/maxwin/BulkDock/SCRATCH/217072/C28464-P104

>  <alias>  (318) 
None

>  <SLURM_JOB_ID>  (318) 
217072

>  <exports>  (318) 
['/opt/xchem-fragalysis-2/maxwin/BulkDock/OUTPUTS/RdRp_knitwork_green_site_rna_tunnel_pure_split4000_batch001_217072.sdf']

$$$$
120695
     RDKit          3D

 21 23  0  0  0  0  0  0  0  0999 V2000
  -27.2779  -30.1216  -22.2807 O   0  0  0  0  0  0  0  0  0  0  0  0
  -27.2067  -30.6225  -21.2309 C   0  0  0  0  0  0  0  0  0  0  0  0
  -26.2667  -31.7292  -20.7142 N   0  0  0  0  0  0  0  0  0  0  0  0
  -25.2710  -32.5263  -21.4139 C   0  0  0  0  0  0  0  0  0  0  0  0
  -24.0921  -31.7112  -21.9678 C   0  0  0  0  0  0  0  0  0  0  0  0
  -23.2066  -32.4740  -22.8383 N   0  0  0  0  0  0  0  0  0  0  0  0
  -21.7982  -32.6409  -22.5674 C   0  0  0  0  0  0  0  0  0  0  0  0
  -21.1985  -32.9035  -23.9376 C   0  0  0  0  0  0  0  0  0  0  0  0
  -22.3315  -33.5543  -24.7189 C   0  0  0  0  0  0  0  0  0  0  0  0
  -23.5578  -32.9385  -24.0943 C   0  0  0  0  0  0  0  0  0  0  0  0
  -24.6645  -32.8973  -24.6069 O   0  0  0  0  0  0  0  0  0  0  0  0
  -28.2376  -30.2016  -20.2199 C   0  0  0  0  0  0  0  0  0  0  0  0
  -29.5025  -29.9143  -20.7447 C   0  0  0  0  0  0  0  0  0  0  0  0
  -30.5694  -29.7966  -19.8928 C   0  0  0  0  0  0  0  0  0  0  0  0
  -30.4341  -29.8386  -18.5634 N   0  0  0  0  0  0  0  0  0  0  0  0
  -29.2029  -29.9143  -18.0572 C   0  0  0  0  0  0  0  0  0  0  0  0
  -29.1068  -29.7877  -16.6881 C   0  0  0  0  0  0  0  0  0  0  0  0
  -27.8765  -29.7851  -16.0385 C   0  0  0  0  0  0  0  0  0  0  0  0
  -26.7090  -29.9153  -16.7744 C   0  0  0  0  0  0  0  0  0  0  0  0
  -26.7850  -30.0899  -18.1542 C   0  0  0  0  0  0  0  0  0  0  0  0
  -28.0349  -30.0932  -18.8276 C   0  0  0  0  0  0  0  0  0  0  0  0
  1  2  2  0
  2  3  1  0
  3  4  1  0
  4  5  1  0
  5  6  1  0
  6  7  1  0
  7  8  1  0
  8  9  1  0
  9 10  1  0
 10 11  2  0
  2 12  1  0
 12 13  2  0
 13 14  1  0
 14 15  2  0
 15 16  1  0
 16 17  2  0
 17 18  1  0
 18 19  2  0
 19 20  1  0
 20 21  2  0
 10  6  1  0
 21 12  1  0
 21 16  1  0
M  END
>  <HIPPO Pose ID>  (319) 
120695

>  <fragmenstein_outcome>  (319) 
acceptable

>  <energy_score>  (319) 
-42.700457

>  <distance_score>  (319) 
0.850362

>  <fragmenstein_mode>  (319) 
expansion

>  <HIPPO Compound ID>  (319) 
65644

>  <name>  (319) 
UITHGRVXYULYQA-UHFFFAOYSA-N

>  <ref_pdb>  (319) 
z1018a

>  <ref_mols>  (319) 
z1018a,z1040a

>  <csv_name>  (319) 
RdRp_knitwork_green_site_rna_tunnel_pure_split4000_batch011.csv

>  <fragmenstein_runtime>  (319) 
3.825018

>  <tags>  (319) 
['Fragmenstein placed']

>  <original ID>  (319) 
UITHGRVXYULYQA-UHFFFAOYSA-N

>  <fragmenstein_error>  (319) 
None

>  <original SMILES>  (319) 
O=C(NCCN1CCCC1=O)c1ccnc2ccccc12

>  <inchikey>  (319) 
UITHGRVXYULYQA-UHFFFAOYSA-N

>  <SLURM_JOB_NAME>  (319) 
BulkDock.place:Flavi_NS5_RdRp:RdRp_knitwork_green_site_rna_tunnel_pure_split4000_batch011

>  <scratch_subdir>  (319) 
/opt/xchem-fragalysis-2/maxwin/BulkDock/SCRATCH/217082/C65644-P206

>  <alias>  (319) 
None

>  <SLURM_JOB_ID>  (319) 
217082

>  <exports>  (319) 
['/opt/xchem-fragalysis-2/maxwin/BulkDock/OUTPUTS/RdRp_knitwork_green_site_rna_tunnel_pure_split4000_batch011_217082.sdf']

$$$$
120701
     RDKit          3D

 21 23  0  0  0  0  0  0  0  0999 V2000
  -27.5439  -30.1286  -22.4788 O   0  0  0  0  0  0  0  0  0  0  0  0
  -27.5259  -30.8013  -21.5290 C   0  0  0  0  0  0  0  0  0  0  0  0
  -26.7173  -32.0737  -21.2235 N   0  0  0  0  0  0  0  0  0  0  0  0
  -25.6855  -32.7368  -21.9886 C   0  0  0  0  0  0  0  0  0  0  0  0
  -24.3888  -31.9194  -22.1253 C   0  0  0  0  0  0  0  0  0  0  0  0
  -23.3773  -32.6028  -22.9170 N   0  0  0  0  0  0  0  0  0  0  0  0
  -21.9973  -32.6805  -22.5146 C   0  0  0  0  0  0  0  0  0  0  0  0
  -21.2446  -32.8644  -23.8182 C   0  0  0  0  0  0  0  0  0  0  0  0
  -22.2603  -33.4758  -24.7696 C   0  0  0  0  0  0  0  0  0  0  0  0
  -23.5640  -32.9524  -24.2436 C   0  0  0  0  0  0  0  0  0  0  0  0
  -24.6008  -32.9112  -24.8816 O   0  0  0  0  0  0  0  0  0  0  0  0
  -28.4843  -30.4795  -20.4308 C   0  0  0  0  0  0  0  0  0  0  0  0
  -29.7967  -30.2329  -20.8319 C   0  0  0  0  0  0  0  0  0  0  0  0
  -30.7703  -30.1409  -19.8715 C   0  0  0  0  0  0  0  0  0  0  0  0
  -30.5061  -30.2178  -18.5598 N   0  0  0  0  0  0  0  0  0  0  0  0
  -29.2369  -30.3386  -18.1717 C   0  0  0  0  0  0  0  0  0  0  0  0
  -29.0121  -30.3417  -16.8109 C   0  0  0  0  0  0  0  0  0  0  0  0
  -27.7263  -30.4305  -16.2886 C   0  0  0  0  0  0  0  0  0  0  0  0
  -26.6357  -30.4933  -17.1450 C   0  0  0  0  0  0  0  0  0  0  0  0
  -26.8402  -30.5024  -18.5227 C   0  0  0  0  0  0  0  0  0  0  0  0
  -28.1499  -30.4533  -19.0612 C   0  0  0  0  0  0  0  0  0  0  0  0
  1  2  2  0
  2  3  1  0
  3  4  1  0
  4  5  1  0
  5  6  1  0
  6  7  1  0
  7  8  1  0
  8  9  1  0
  9 10  1  0
 10 11  2  0
  2 12  1  0
 12 13  2  0
 13 14  1  0
 14 15  2  0
 15 16  1  0
 16 17  2  0
 17 18  1  0
 18 19  2  0
 19 20  1  0
 20 21  2  0
 10  6  1  0
 21 12  1  0
 21 16  1  0
M  END
>  <HIPPO Pose ID>  (320) 
120701

>  <fragmenstein_outcome>  (320) 
acceptable

>  <energy_score>  (320) 
-45.430687

>  <distance_score>  (320) 
0.983392

>  <fragmenstein_mode>  (320) 
expansion

>  <HIPPO Compound ID>  (320) 
65644

>  <name>  (320) 
UITHGRVXYULYQA-UHFFFAOYSA-N

>  <ref_pdb>  (320) 
z1040a

>  <ref_mols>  (320) 
z1018a,z1040a

>  <csv_name>  (320) 
RdRp_knitwork_green_site_rna_tunnel_pure_split4000_batch011.csv

>  <fragmenstein_runtime>  (320) 
4.255212

>  <tags>  (320) 
['Fragmenstein placed']

>  <original ID>  (320) 
UITHGRVXYULYQA-UHFFFAOYSA-N

>  <fragmenstein_error>  (320) 
None

>  <original SMILES>  (320) 
O=C(NCCN1CCCC1=O)c1ccnc2ccccc12

>  <inchikey>  (320) 
UITHGRVXYULYQA-UHFFFAOYSA-N

>  <SLURM_JOB_NAME>  (320) 
BulkDock.place:Flavi_NS5_RdRp:RdRp_knitwork_green_site_rna_tunnel_pure_split4000_batch011

>  <scratch_subdir>  (320) 
/opt/xchem-fragalysis-2/maxwin/BulkDock/SCRATCH/217082/C65644-P208

>  <alias>  (320) 
None

>  <SLURM_JOB_ID>  (320) 
217082

>  <exports>  (320) 
['/opt/xchem-fragalysis-2/maxwin/BulkDock/OUTPUTS/RdRp_knitwork_green_site_rna_tunnel_pure_split4000_batch011_217082.sdf']

$$$$
120707
     RDKit          3D

 24 26  0  0  0  0  0  0  0  0999 V2000
  -30.5750  -29.0078  -22.4549 C   0  0  0  0  0  0  0  0  0  0  0  0
  -29.3515  -29.0266  -21.5978 C   0  0  0  0  0  0  0  0  0  0  0  0
  -28.4409  -28.2120  -21.7100 O   0  0  0  0  0  0  0  0  0  0  0  0
  -29.2705  -29.9453  -20.4592 C   0  0  0  0  0  0  0  0  0  0  0  0
  -30.3378  -29.8900  -19.5862 C   0  0  0  0  0  0  0  0  0  0  0  0
  -30.1854  -30.0327  -18.2669 N   0  0  0  0  0  0  0  0  0  0  0  0
  -28.9358  -30.0568  -17.8053 C   0  0  0  0  0  0  0  0  0  0  0  0
  -28.8042  -29.8879  -16.4461 C   0  0  0  0  0  0  0  0  0  0  0  0
  -27.5530  -29.8274  -15.8441 C   0  0  0  0  0  0  0  0  0  0  0  0
  -26.4047  -29.9224  -16.6152 C   0  0  0  0  0  0  0  0  0  0  0  0
  -26.5133  -30.1217  -17.9879 C   0  0  0  0  0  0  0  0  0  0  0  0
  -27.7804  -30.2079  -18.6133 C   0  0  0  0  0  0  0  0  0  0  0  0
  -28.0026  -30.3323  -19.9956 C   0  0  0  0  0  0  0  0  0  0  0  0
  -27.0262  -30.8814  -21.0339 C   0  0  0  0  0  0  0  0  0  0  0  0
  -27.1870  -30.5145  -22.1254 O   0  0  0  0  0  0  0  0  0  0  0  0
  -26.0433  -31.9199  -20.4666 N   0  0  0  0  0  0  0  0  0  0  0  0
  -24.9762  -32.6638  -21.1162 C   0  0  0  0  0  0  0  0  0  0  0  0
  -23.9671  -31.7716  -21.8573 C   0  0  0  0  0  0  0  0  0  0  0  0
  -23.1400  -32.4868  -22.8181 N   0  0  0  0  0  0  0  0  0  0  0  0
  -21.7256  -32.6973  -22.6253 C   0  0  0  0  0  0  0  0  0  0  0  0
  -21.2110  -32.9488  -24.0312 C   0  0  0  0  0  0  0  0  0  0  0  0
  -22.4011  -33.5630  -24.7567 C   0  0  0  0  0  0  0  0  0  0  0  0
  -23.5815  -32.9440  -24.0489 C   0  0  0  0  0  0  0  0  0  0  0  0
  -24.7218  -32.9023  -24.4854 O   0  0  0  0  0  0  0  0  0  0  0  0
  1  2  1  0
  2  3  2  0
  2  4  1  0
  4  5  2  0
  5  6  1  0
  6  7  2  0
  7  8  1  0
  8  9  2  0
  9 10  1  0
 10 11  2  0
 11 12  1  0
 12 13  2  0
 13 14  1  0
 14 15  2  0
 14 16  1  0
 16 17  1  0
 17 18  1  0
 18 19  1  0
 19 20  1  0
 20 21  1  0
 21 22  1  0
 22 23  1  0
 23 24  2  0
 13  4  1  0
 23 19  1  0
 12  7  1  0
M  END
>  <HIPPO Pose ID>  (321) 
120707

>  <fragmenstein_outcome>  (321) 
acceptable

>  <energy_score>  (321) 
-13.381023

>  <distance_score>  (321) 
0.898785

>  <fragmenstein_mode>  (321) 
expansion

>  <HIPPO Compound ID>  (321) 
65662

>  <name>  (321) 
BGXXMCKWPIPKRO-UHFFFAOYSA-N

>  <ref_pdb>  (321) 
z1018a

>  <ref_mols>  (321) 
z1018a,z1040a

>  <csv_name>  (321) 
RdRp_knitwork_green_site_rna_tunnel_pure_split4000_batch011.csv

>  <fragmenstein_runtime>  (321) 
5.654129

>  <tags>  (321) 
['Fragmenstein placed']

>  <original ID>  (321) 
BGXXMCKWPIPKRO-UHFFFAOYSA-N

>  <fragmenstein_error>  (321) 
None

>  <original SMILES>  (321) 
CC(=O)c1cnc2ccccc2c1C(=O)NCCN1CCCC1=O

>  <inchikey>  (321) 
BGXXMCKWPIPKRO-UHFFFAOYSA-N

>  <SLURM_JOB_NAME>  (321) 
BulkDock.place:Flavi_NS5_RdRp:RdRp_knitwork_green_site_rna_tunnel_pure_split4000_batch011

>  <scratch_subdir>  (321) 
/opt/xchem-fragalysis-2/maxwin/BulkDock/SCRATCH/217082/C65662-P206

>  <alias>  (321) 
None

>  <SLURM_JOB_ID>  (321) 
217082

>  <exports>  (321) 
['/opt/xchem-fragalysis-2/maxwin/BulkDock/OUTPUTS/RdRp_knitwork_green_site_rna_tunnel_pure_split4000_batch011_217082.sdf']

$$$$
120774
     RDKit          3D

 22 24  0  0  0  0  0  0  0  0999 V2000
  -27.1041  -30.2853  -22.2197 O   0  0  0  0  0  0  0  0  0  0  0  0
  -27.0018  -30.7459  -21.1552 C   0  0  0  0  0  0  0  0  0  0  0  0
  -26.0320  -31.8110  -20.6200 N   0  0  0  0  0  0  0  0  0  0  0  0
  -25.0359  -32.6112  -21.3093 C   0  0  0  0  0  0  0  0  0  0  0  0
  -23.9265  -31.7672  -21.9543 C   0  0  0  0  0  0  0  0  0  0  0  0
  -23.0796  -32.5131  -22.8724 N   0  0  0  0  0  0  0  0  0  0  0  0
  -21.6620  -32.6811  -22.6636 C   0  0  0  0  0  0  0  0  0  0  0  0
  -21.1259  -32.9503  -24.0583 C   0  0  0  0  0  0  0  0  0  0  0  0
  -22.2957  -33.5947  -24.7896 C   0  0  0  0  0  0  0  0  0  0  0  0
  -23.4915  -32.9786  -24.1090 C   0  0  0  0  0  0  0  0  0  0  0  0
  -24.6217  -32.9392  -24.5679 O   0  0  0  0  0  0  0  0  0  0  0  0
  -28.0176  -30.2935  -20.1448 C   0  0  0  0  0  0  0  0  0  0  0  0
  -29.2741  -30.0040  -20.6793 C   0  0  0  0  0  0  0  0  0  0  0  0
  -30.3294  -29.8417  -19.8270 C   0  0  0  0  0  0  0  0  0  0  0  0
  -31.5877  -29.6602  -20.2886 O   0  0  0  0  0  0  0  0  0  0  0  0
  -30.2128  -29.8432  -18.5039 N   0  0  0  0  0  0  0  0  0  0  0  0
  -28.9884  -29.9277  -17.9941 C   0  0  0  0  0  0  0  0  0  0  0  0
  -28.8995  -29.7747  -16.6282 C   0  0  0  0  0  0  0  0  0  0  0  0
  -27.6717  -29.7836  -15.9760 C   0  0  0  0  0  0  0  0  0  0  0  0
  -26.5024  -29.9348  -16.7061 C   0  0  0  0  0  0  0  0  0  0  0  0
  -26.5725  -30.1310  -18.0832 C   0  0  0  0  0  0  0  0  0  0  0  0
  -27.8197  -30.1451  -18.7570 C   0  0  0  0  0  0  0  0  0  0  0  0
  1  2  2  0
  2  3  1  0
  3  4  1  0
  4  5  1  0
  5  6  1  0
  6  7  1  0
  7  8  1  0
  8  9  1  0
  9 10  1  0
 10 11  2  0
  2 12  1  0
 12 13  2  0
 13 14  1  0
 14 15  1  0
 14 16  2  0
 16 17  1  0
 17 18  2  0
 18 19  1  0
 19 20  2  0
 20 21  1  0
 21 22  2  0
 10  6  1  0
 22 12  1  0
 22 17  1  0
M  END
>  <HIPPO Pose ID>  (322) 
120774

>  <fragmenstein_outcome>  (322) 
acceptable

>  <energy_score>  (322) 
-66.10837

>  <distance_score>  (322) 
0.839082

>  <fragmenstein_mode>  (322) 
expansion

>  <HIPPO Compound ID>  (322) 
65691

>  <name>  (322) 
NLPSSNMFGBLZAP-UHFFFAOYSA-N

>  <ref_pdb>  (322) 
z1018a

>  <ref_mols>  (322) 
z1018a,z1040a

>  <csv_name>  (322) 
RdRp_knitwork_green_site_rna_tunnel_pure_split4000_batch011.csv

>  <fragmenstein_runtime>  (322) 
3.242393

>  <tags>  (322) 
['Fragmenstein placed']

>  <original ID>  (322) 
NLPSSNMFGBLZAP-UHFFFAOYSA-N

>  <fragmenstein_error>  (322) 
None

>  <original SMILES>  (322) 
O=C(NCCN1CCCC1=O)c1cc(O)nc2ccccc12

>  <inchikey>  (322) 
NLPSSNMFGBLZAP-UHFFFAOYSA-N

>  <SLURM_JOB_NAME>  (322) 
BulkDock.place:Flavi_NS5_RdRp:RdRp_knitwork_green_site_rna_tunnel_pure_split4000_batch011

>  <scratch_subdir>  (322) 
/opt/xchem-fragalysis-2/maxwin/BulkDock/SCRATCH/217082/C65691-P206

>  <alias>  (322) 
None

>  <SLURM_JOB_ID>  (322) 
217082

>  <exports>  (322) 
['/opt/xchem-fragalysis-2/maxwin/BulkDock/OUTPUTS/RdRp_knitwork_green_site_rna_tunnel_pure_split4000_batch011_217082.sdf']

$$$$
120781
     RDKit          3D

 22 24  0  0  0  0  0  0  0  0999 V2000
  -27.1967  -30.2682  -22.3865 O   0  0  0  0  0  0  0  0  0  0  0  0
  -27.2213  -30.8945  -21.4052 C   0  0  0  0  0  0  0  0  0  0  0  0
  -26.3512  -32.0798  -20.9578 N   0  0  0  0  0  0  0  0  0  0  0  0
  -25.3257  -32.8090  -21.6639 C   0  0  0  0  0  0  0  0  0  0  0  0
  -24.1514  -31.9158  -22.0903 C   0  0  0  0  0  0  0  0  0  0  0  0
  -23.2179  -32.6043  -22.9617 N   0  0  0  0  0  0  0  0  0  0  0  0
  -21.8198  -32.7429  -22.6608 C   0  0  0  0  0  0  0  0  0  0  0  0
  -21.1852  -32.9417  -24.0225 C   0  0  0  0  0  0  0  0  0  0  0  0
  -22.2889  -33.5362  -24.8852 C   0  0  0  0  0  0  0  0  0  0  0  0
  -23.5361  -32.9941  -24.2501 C   0  0  0  0  0  0  0  0  0  0  0  0
  -24.6321  -32.9675  -24.7810 O   0  0  0  0  0  0  0  0  0  0  0  0
  -28.2583  -30.5338  -20.3957 C   0  0  0  0  0  0  0  0  0  0  0  0
  -29.4959  -30.2335  -20.9414 C   0  0  0  0  0  0  0  0  0  0  0  0
  -30.5551  -30.0991  -20.0983 C   0  0  0  0  0  0  0  0  0  0  0  0
  -31.7717  -29.8546  -20.6289 O   0  0  0  0  0  0  0  0  0  0  0  0
  -30.4921  -30.1818  -18.7736 N   0  0  0  0  0  0  0  0  0  0  0  0
  -29.2789  -30.3334  -18.2399 C   0  0  0  0  0  0  0  0  0  0  0  0
  -29.2115  -30.3151  -16.8619 C   0  0  0  0  0  0  0  0  0  0  0  0
  -27.9952  -30.4098  -16.1931 C   0  0  0  0  0  0  0  0  0  0  0  0
  -26.8136  -30.5033  -16.9164 C   0  0  0  0  0  0  0  0  0  0  0  0
  -26.8558  -30.5362  -18.3080 C   0  0  0  0  0  0  0  0  0  0  0  0
  -28.0922  -30.4875  -18.9965 C   0  0  0  0  0  0  0  0  0  0  0  0
  1  2  2  0
  2  3  1  0
  3  4  1  0
  4  5  1  0
  5  6  1  0
  6  7  1  0
  7  8  1  0
  8  9  1  0
  9 10  1  0
 10 11  2  0
  2 12  1  0
 12 13  2  0
 13 14  1  0
 14 15  1  0
 14 16  2  0
 16 17  1  0
 17 18  2  0
 18 19  1  0
 19 20  2  0
 20 21  1  0
 21 22  2  0
 10  6  1  0
 22 12  1  0
 22 17  1  0
M  END
>  <HIPPO Pose ID>  (323) 
120781

>  <fragmenstein_outcome>  (323) 
acceptable

>  <energy_score>  (323) 
-76.243004

>  <distance_score>  (323) 
0.805255

>  <fragmenstein_mode>  (323) 
expansion

>  <HIPPO Compound ID>  (323) 
65691

>  <name>  (323) 
NLPSSNMFGBLZAP-UHFFFAOYSA-N

>  <ref_pdb>  (323) 
z1040a

>  <ref_mols>  (323) 
z1018a,z1040a

>  <csv_name>  (323) 
RdRp_knitwork_green_site_rna_tunnel_pure_split4000_batch011.csv

>  <fragmenstein_runtime>  (323) 
4.185887

>  <tags>  (323) 
['Fragmenstein placed']

>  <original ID>  (323) 
NLPSSNMFGBLZAP-UHFFFAOYSA-N

>  <fragmenstein_error>  (323) 
None

>  <original SMILES>  (323) 
O=C(NCCN1CCCC1=O)c1cc(O)nc2ccccc12

>  <inchikey>  (323) 
NLPSSNMFGBLZAP-UHFFFAOYSA-N

>  <SLURM_JOB_NAME>  (323) 
BulkDock.place:Flavi_NS5_RdRp:RdRp_knitwork_green_site_rna_tunnel_pure_split4000_batch011

>  <scratch_subdir>  (323) 
/opt/xchem-fragalysis-2/maxwin/BulkDock/SCRATCH/217082/C65691-P208

>  <alias>  (323) 
None

>  <SLURM_JOB_ID>  (323) 
217082

>  <exports>  (323) 
['/opt/xchem-fragalysis-2/maxwin/BulkDock/OUTPUTS/RdRp_knitwork_green_site_rna_tunnel_pure_split4000_batch011_217082.sdf']

$$$$
120851
     RDKit          3D

 22 23  0  0  0  0  0  0  0  0999 V2000
  -21.7072  -29.9004  -10.3921 C   0  0  0  0  0  0  0  0  0  0  0  0
  -21.0239  -30.8017  -11.2520 O   0  0  0  0  0  0  0  0  0  0  0  0
  -21.7427  -31.0708  -12.4593 C   0  0  0  0  0  0  0  0  0  0  0  0
  -21.5267  -29.9767  -13.5101 C   0  0  0  0  0  0  0  0  0  0  0  0
  -22.6367  -29.7541  -14.5066 C   0  0  0  0  0  0  0  0  0  0  0  0
  -22.6902  -28.7008  -15.3091 N   0  0  0  0  0  0  0  0  0  0  0  0
  -23.9824  -28.5725  -15.7892 C   0  0  0  0  0  0  0  0  0  0  0  0
  -24.8494  -29.5946  -15.4587 C   0  0  0  0  0  0  0  0  0  0  0  0
  -26.3276  -29.7294  -15.5751 C   0  0  0  0  0  0  0  0  0  0  0  0
  -26.9150  -28.7584  -16.4959 N   0  0  0  0  0  0  0  0  0  0  0  0
  -27.2178  -29.2808  -17.8490 C   0  0  1  0  0  0  0  0  0  0  0  0
  -25.9526  -29.8962  -18.5066 C   0  0  0  0  0  0  0  0  0  0  0  0
  -25.9464  -29.9030  -19.9533 N   0  0  0  0  0  0  0  0  0  0  0  0
  -26.1074  -30.9728  -20.7850 C   0  0  0  0  0  0  0  0  0  0  0  0
  -25.8700  -30.4826  -22.0482 C   0  0  0  0  0  0  0  0  0  0  0  0
  -25.5436  -29.1520  -21.9960 N   0  0  0  0  0  0  0  0  0  0  0  0
  -25.5810  -28.8367  -20.7228 C   0  0  0  0  0  0  0  0  0  0  0  0
  -28.5150  -30.1823  -17.9442 C   0  0  0  0  0  0  0  0  0  0  0  0
  -28.2601  -31.7064  -17.9414 C   0  0  0  0  0  0  0  0  0  0  0  0
  -29.5084  -29.9472  -16.7952 C   0  0  0  0  0  0  0  0  0  0  0  0
  -29.2495  -29.8112  -19.2498 C   0  0  0  0  0  0  0  0  0  0  0  0
  -23.9534  -30.8479  -14.7175 S   0  0  0  0  0  0  0  0  0  0  0  0
  1  2  1  0
  2  3  1  0
  3  4  1  0
  4  5  1  0
  5  6  2  0
  6  7  1  0
  7  8  2  0
  8  9  1  0
  9 10  1  0
 10 11  1  0
 11 12  1  1
 12 13  1  0
 13 14  1  0
 14 15  2  0
 15 16  1  0
 16 17  2  0
 11 18  1  0
 18 19  1  0
 18 20  1  0
 18 21  1  0
  8 22  1  0
 22  5  1  0
 17 13  1  0
M  END
>  <HIPPO Pose ID>  (324) 
120851

>  <fragmenstein_outcome>  (324) 
acceptable

>  <energy_score>  (324) 
-77.464712

>  <distance_score>  (324) 
0.724556

>  <fragmenstein_mode>  (324) 
expansion

>  <HIPPO Compound ID>  (324) 
47825

>  <name>  (324) 
UXBXEFRUTIJRDC-AWEZNQCLSA-N

>  <ref_pdb>  (324) 
d0378a

>  <ref_mols>  (324) 
d0378a,z0384a

>  <csv_name>  (324) 
RdRp_knitwork_green_site_rna_tunnel_pure_split4000_batch000.csv

>  <fragmenstein_runtime>  (324) 
54.553829

>  <tags>  (324) 
['Fragmenstein placed']

>  <original ID>  (324) 
UXBXEFRUTIJRDC-AWEZNQCLSA-N

>  <fragmenstein_error>  (324) 
None

>  <original SMILES>  (324) 
COCCc1ncc(CN[C@@H](Cn2ccnc2)C(C)(C)C)s1

>  <inchikey>  (324) 
UXBXEFRUTIJRDC-AWEZNQCLSA-N

>  <SLURM_JOB_NAME>  (324) 
BulkDock.place:Flavi_NS5_RdRp:RdRp_knitwork_green_site_rna_tunnel_pure_split4000_batch000

>  <scratch_subdir>  (324) 
/opt/xchem-fragalysis-2/maxwin/BulkDock/SCRATCH/217071/C47825-P1

>  <alias>  (324) 
None

>  <SLURM_JOB_ID>  (324) 
217071

>  <exports>  (324) 
['/opt/xchem-fragalysis-2/maxwin/BulkDock/OUTPUTS/RdRp_knitwork_green_site_rna_tunnel_pure_split4000_batch000_217071.sdf']

$$$$
121039
     RDKit          3D

 22 24  0  0  0  0  0  0  0  0999 V2000
  -24.7285  -33.8942  -21.3032 O   0  0  0  0  0  0  0  0  0  0  0  0
  -24.5593  -32.7365  -21.3146 C   0  0  0  0  0  0  0  0  0  0  0  0
  -25.2165  -31.7772  -20.3136 C   0  0  0  0  0  0  0  0  0  0  0  0
  -25.9359  -30.8153  -21.0831 O   0  0  0  0  0  0  0  0  0  0  0  0
  -27.1663  -30.4258  -20.6149 C   0  0  0  0  0  0  0  0  0  0  0  0
  -28.0037  -29.9801  -21.6363 C   0  0  0  0  0  0  0  0  0  0  0  0
  -29.3012  -29.6132  -21.3624 C   0  0  0  0  0  0  0  0  0  0  0  0
  -29.7720  -29.7545  -20.0757 C   0  0  0  0  0  0  0  0  0  0  0  0
  -31.4615  -29.7152  -19.9179 Cl  0  0  0  0  0  0  0  0  0  0  0  0
  -28.8917  -29.9490  -18.9996 C   0  0  0  0  0  0  0  0  0  0  0  0
  -29.2755  -29.7704  -17.6554 C   0  0  0  0  0  0  0  0  0  0  0  0
  -28.3196  -29.7859  -16.6521 C   0  0  0  0  0  0  0  0  0  0  0  0
  -27.0158  -30.0481  -17.0154 C   0  0  0  0  0  0  0  0  0  0  0  0
  -26.6316  -30.3359  -18.2784 N   0  0  0  0  0  0  0  0  0  0  0  0
  -27.5440  -30.2705  -19.2718 C   0  0  0  0  0  0  0  0  0  0  0  0
  -23.7500  -31.8430  -22.3056 N   0  0  0  0  0  0  0  0  0  0  0  0
  -22.9591  -32.1854  -23.3592 N   0  0  0  0  0  0  0  0  0  0  0  0
  -21.6345  -32.6569  -23.0633 C   0  0  0  0  0  0  0  0  0  0  0  0
  -21.1459  -33.0997  -24.4297 C   0  0  0  0  0  0  0  0  0  0  0  0
  -22.4079  -33.6373  -25.1028 C   0  0  0  0  0  0  0  0  0  0  0  0
  -23.5199  -32.8470  -24.4497 C   0  0  0  0  0  0  0  0  0  0  0  0
  -24.6878  -32.8267  -24.8166 O   0  0  0  0  0  0  0  0  0  0  0  0
  1  2  2  0
  2  3  1  0
  3  4  1  0
  4  5  1  0
  5  6  2  0
  6  7  1  0
  7  8  2  0
  8  9  1  0
  8 10  1  0
 10 11  2  0
 11 12  1  0
 12 13  2  0
 13 14  1  0
 14 15  2  0
  2 16  1  0
 16 17  1  0
 17 18  1  0
 18 19  1  0
 19 20  1  0
 20 21  1  0
 21 22  2  0
 15  5  1  0
 21 17  1  0
 15 10  1  0
M  END
>  <HIPPO Pose ID>  (325) 
121039

>  <fragmenstein_outcome>  (325) 
acceptable

>  <energy_score>  (325) 
-31.85226

>  <distance_score>  (325) 
0.733445

>  <fragmenstein_mode>  (325) 
expansion

>  <HIPPO Compound ID>  (325) 
65799

>  <name>  (325) 
SNUNTDGBOPFBHB-UHFFFAOYSA-N

>  <ref_pdb>  (325) 
z1018a

>  <ref_mols>  (325) 
z1018a,z1040a

>  <csv_name>  (325) 
RdRp_knitwork_green_site_rna_tunnel_pure_split4000_batch011.csv

>  <fragmenstein_runtime>  (325) 
3.870136

>  <tags>  (325) 
['Fragmenstein placed']

>  <original ID>  (325) 
SNUNTDGBOPFBHB-UHFFFAOYSA-N

>  <fragmenstein_error>  (325) 
None

>  <original SMILES>  (325) 
O=C(COc1ccc(Cl)c2cccnc12)NN1CCCC1=O

>  <inchikey>  (325) 
SNUNTDGBOPFBHB-UHFFFAOYSA-N

>  <SLURM_JOB_NAME>  (325) 
BulkDock.place:Flavi_NS5_RdRp:RdRp_knitwork_green_site_rna_tunnel_pure_split4000_batch011

>  <scratch_subdir>  (325) 
/opt/xchem-fragalysis-2/maxwin/BulkDock/SCRATCH/217082/C65799-P206

>  <alias>  (325) 
None

>  <SLURM_JOB_ID>  (325) 
217082

>  <exports>  (325) 
['/opt/xchem-fragalysis-2/maxwin/BulkDock/OUTPUTS/RdRp_knitwork_green_site_rna_tunnel_pure_split4000_batch011_217082.sdf']

$$$$
121047
     RDKit          3D

 22 24  0  0  0  0  0  0  0  0999 V2000
  -23.3197  -33.4680  -20.0090 O   0  0  0  0  0  0  0  0  0  0  0  0
  -23.9461  -32.6193  -20.5156 C   0  0  0  0  0  0  0  0  0  0  0  0
  -25.0809  -31.8687  -19.7931 C   0  0  0  0  0  0  0  0  0  0  0  0
  -25.7843  -30.9905  -20.6735 O   0  0  0  0  0  0  0  0  0  0  0  0
  -27.0767  -30.6856  -20.3167 C   0  0  0  0  0  0  0  0  0  0  0  0
  -27.8876  -30.4361  -21.4230 C   0  0  0  0  0  0  0  0  0  0  0  0
  -29.2221  -30.1487  -21.2347 C   0  0  0  0  0  0  0  0  0  0  0  0
  -29.7652  -30.1944  -19.9659 C   0  0  0  0  0  0  0  0  0  0  0  0
  -31.4665  -30.0992  -19.9014 Cl  0  0  0  0  0  0  0  0  0  0  0  0
  -28.9513  -30.3392  -18.8311 C   0  0  0  0  0  0  0  0  0  0  0  0
  -29.4503  -30.2519  -17.5148 C   0  0  0  0  0  0  0  0  0  0  0  0
  -28.5926  -30.3401  -16.4315 C   0  0  0  0  0  0  0  0  0  0  0  0
  -27.2545  -30.5247  -16.6933 C   0  0  0  0  0  0  0  0  0  0  0  0
  -26.7412  -30.6348  -17.9366 N   0  0  0  0  0  0  0  0  0  0  0  0
  -27.5667  -30.5597  -19.0044 C   0  0  0  0  0  0  0  0  0  0  0  0
  -23.8268  -31.9868  -21.9326 N   0  0  0  0  0  0  0  0  0  0  0  0
  -23.0280  -32.3137  -22.9775 N   0  0  0  0  0  0  0  0  0  0  0  0
  -21.6892  -32.7521  -22.7266 C   0  0  0  0  0  0  0  0  0  0  0  0
  -21.1834  -32.9771  -24.1378 C   0  0  0  0  0  0  0  0  0  0  0  0
  -22.4151  -33.4763  -24.8928 C   0  0  0  0  0  0  0  0  0  0  0  0
  -23.5538  -32.8057  -24.1625 C   0  0  0  0  0  0  0  0  0  0  0  0
  -24.7089  -32.7504  -24.5519 O   0  0  0  0  0  0  0  0  0  0  0  0
  1  2  2  0
  2  3  1  0
  3  4  1  0
  4  5  1  0
  5  6  2  0
  6  7  1  0
  7  8  2  0
  8  9  1  0
  8 10  1  0
 10 11  2  0
 11 12  1  0
 12 13  2  0
 13 14  1  0
 14 15  2  0
  2 16  1  0
 16 17  1  0
 17 18  1  0
 18 19  1  0
 19 20  1  0
 20 21  1  0
 21 22  2  0
 15  5  1  0
 21 17  1  0
 15 10  1  0
M  END
>  <HIPPO Pose ID>  (326) 
121047

>  <fragmenstein_outcome>  (326) 
acceptable

>  <energy_score>  (326) 
-42.154336

>  <distance_score>  (326) 
0.789556

>  <fragmenstein_mode>  (326) 
expansion

>  <HIPPO Compound ID>  (326) 
65799

>  <name>  (326) 
SNUNTDGBOPFBHB-UHFFFAOYSA-N

>  <ref_pdb>  (326) 
z1040a

>  <ref_mols>  (326) 
z1018a,z1040a

>  <csv_name>  (326) 
RdRp_knitwork_green_site_rna_tunnel_pure_split4000_batch011.csv

>  <fragmenstein_runtime>  (326) 
3.747341

>  <tags>  (326) 
['Fragmenstein placed']

>  <original ID>  (326) 
SNUNTDGBOPFBHB-UHFFFAOYSA-N

>  <fragmenstein_error>  (326) 
None

>  <original SMILES>  (326) 
O=C(COc1ccc(Cl)c2cccnc12)NN1CCCC1=O

>  <inchikey>  (326) 
SNUNTDGBOPFBHB-UHFFFAOYSA-N

>  <SLURM_JOB_NAME>  (326) 
BulkDock.place:Flavi_NS5_RdRp:RdRp_knitwork_green_site_rna_tunnel_pure_split4000_batch011

>  <scratch_subdir>  (326) 
/opt/xchem-fragalysis-2/maxwin/BulkDock/SCRATCH/217082/C65799-P208

>  <alias>  (326) 
None

>  <SLURM_JOB_ID>  (326) 
217082

>  <exports>  (326) 
['/opt/xchem-fragalysis-2/maxwin/BulkDock/OUTPUTS/RdRp_knitwork_green_site_rna_tunnel_pure_split4000_batch011_217082.sdf']

$$$$
121255
     RDKit          3D

 21 23  0  0  0  0  0  0  0  0999 V2000
  -28.9157  -34.5854  -19.6740 C   0  0  0  0  0  0  0  0  0  0  0  0
  -28.6154  -33.1755  -19.1863 C   0  0  0  0  0  0  0  0  0  0  0  0
  -29.8949  -32.4616  -18.7421 C   0  0  0  0  0  0  0  0  0  0  0  0
  -29.6914  -30.9965  -18.2810 C   0  0  1  0  0  0  0  0  0  0  0  0
  -28.8328  -30.8836  -17.0020 C   0  0  0  0  0  0  0  0  0  0  0  0
  -28.6931  -29.4673  -16.4413 C   0  0  0  0  0  0  0  0  0  0  0  0
  -28.0789  -29.7116  -15.0729 C   0  0  0  0  0  0  0  0  0  0  0  0
  -28.6907  -31.0191  -14.5850 C   0  0  0  0  0  0  0  0  0  0  0  0
  -29.4118  -31.6183  -15.7904 C   0  0  0  0  0  0  0  0  0  0  0  0
  -29.2181  -30.1541  -19.3869 N   0  0  0  0  0  0  0  0  0  0  0  0
  -29.9876  -29.8701  -20.4816 C   0  0  0  0  0  0  0  0  0  0  0  0
  -31.1299  -30.2278  -20.7084 O   0  0  0  0  0  0  0  0  0  0  0  0
  -29.2524  -29.0938  -21.3391 N   0  0  0  0  0  0  0  0  0  0  0  0
  -28.0377  -28.6544  -20.7251 C   0  0  2  0  0  0  0  0  0  0  0  0
  -26.8943  -28.5471  -21.6685 C   0  0  0  0  0  0  0  0  0  0  0  0
  -25.9913  -27.4917  -21.6898 C   0  0  0  0  0  0  0  0  0  0  0  0
  -25.0535  -27.5276  -23.1267 S   0  0  0  0  0  0  0  0  0  0  0  0
  -25.8163  -29.0026  -23.5536 C   0  0  0  0  0  0  0  0  0  0  0  0
  -26.7541  -29.4326  -22.7330 N   0  0  0  0  0  0  0  0  0  0  0  0
  -27.9537  -29.6465  -19.5874 C   0  0  0  0  0  0  0  0  0  0  0  0
  -26.9672  -29.8453  -18.8947 O   0  0  0  0  0  0  0  0  0  0  0  0
  1  2  1  0
  2  3  1  0
  4  3  1  6
  4  5  1  0
  5  6  1  0
  6  7  1  0
  7  8  1  0
  8  9  1  0
  4 10  1  0
 10 11  1  0
 11 12  2  0
 11 13  1  0
 13 14  1  0
 14 15  1  6
 15 16  2  0
 16 17  1  0
 17 18  1  0
 18 19  2  0
 14 20  1  0
 20 21  2  0
  9  5  1  0
 20 10  1  0
 19 15  1  0
M  END
>  <HIPPO Pose ID>  (327) 
121255

>  <fragmenstein_outcome>  (327) 
acceptable

>  <energy_score>  (327) 
-150.971116

>  <distance_score>  (327) 
0.987376

>  <fragmenstein_mode>  (327) 
expansion

>  <HIPPO Compound ID>  (327) 
45917

>  <name>  (327) 
VJVCYOAOYKWFMR-QWHCGFSZSA-N

>  <ref_pdb>  (327) 
z0496a

>  <ref_mols>  (327) 
z0496a,z0519a

>  <csv_name>  (327) 
RdRp_knitwork_green_site_rna_tunnel_pure_split4000_batch015.csv

>  <fragmenstein_runtime>  (327) 
13.391001

>  <tags>  (327) 
['Fragmenstein placed']

>  <original ID>  (327) 
VJVCYOAOYKWFMR-QWHCGFSZSA-N

>  <fragmenstein_error>  (327) 
None

>  <original SMILES>  (327) 
CCC[C@@H](C1CCCC1)N1C(=O)N[C@H](c2cscn2)C1=O

>  <inchikey>  (327) 
VJVCYOAOYKWFMR-QWHCGFSZSA-N

>  <SLURM_JOB_NAME>  (327) 
BulkDock.place:Flavi_NS5_RdRp:RdRp_knitwork_green_site_rna_tunnel_pure_split4000_batch015

>  <scratch_subdir>  (327) 
/opt/xchem-fragalysis-2/maxwin/BulkDock/SCRATCH/217086/C45917-P136

>  <alias>  (327) 
None

>  <SLURM_JOB_ID>  (327) 
217086

>  <exports>  (327) 
['/opt/xchem-fragalysis-2/maxwin/BulkDock/OUTPUTS/RdRp_knitwork_green_site_rna_tunnel_pure_split4000_batch015_217086.sdf']

$$$$
121516
     RDKit          3D

 19 21  0  0  0  0  0  0  0  0999 V2000
  -27.6013  -30.9120  -21.2576 C   0  0  0  0  0  0  0  0  0  0  0  0
  -26.6045  -29.8210  -20.9725 C   0  0  2  0  0  0  0  0  0  0  0  0
  -26.7323  -29.3094  -19.6431 O   0  0  0  0  0  0  0  0  0  0  0  0
  -27.9639  -28.8671  -19.3136 C   0  0  0  0  0  0  0  0  0  0  0  0
  -28.7944  -28.5036  -20.1339 O   0  0  0  0  0  0  0  0  0  0  0  0
  -28.2318  -28.9760  -17.8321 C   0  0  1  0  0  0  0  0  0  0  0  0
  -29.2912  -30.0726  -17.5940 C   0  0  0  0  0  0  0  0  0  0  0  0
  -29.0461  -30.6302  -16.1931 C   0  0  0  0  0  0  0  0  0  0  0  0
  -27.5759  -30.4133  -16.0414 C   0  0  0  0  0  0  0  0  0  0  0  0
  -26.7352  -30.9998  -15.1090 C   0  0  0  0  0  0  0  0  0  0  0  0
  -25.3967  -30.6078  -15.0786 C   0  0  0  0  0  0  0  0  0  0  0  0
  -24.9217  -29.6345  -15.9657 C   0  0  0  0  0  0  0  0  0  0  0  0
  -25.7773  -29.0564  -16.9067 C   0  0  0  0  0  0  0  0  0  0  0  0
  -27.1048  -29.4640  -16.9515 C   0  0  0  0  0  0  0  0  0  0  0  0
  -26.2830  -28.8164  -22.0295 C   0  0  0  0  0  0  0  0  0  0  0  0
  -25.8894  -27.5027  -21.8250 C   0  0  0  0  0  0  0  0  0  0  0  0
  -25.0990  -26.9054  -23.2255 S   0  0  0  0  0  0  0  0  0  0  0  0
  -25.4850  -28.3624  -24.0389 C   0  0  0  0  0  0  0  0  0  0  0  0
  -26.1107  -29.2736  -23.3278 N   0  0  0  0  0  0  0  0  0  0  0  0
  2  1  1  6
  2  3  1  0
  3  4  1  0
  4  5  2  0
  6  4  1  6
  6  7  1  0
  7  8  1  0
  8  9  1  0
  9 10  2  0
 10 11  1  0
 11 12  2  0
 12 13  1  0
 13 14  2  0
  2 15  1  0
 15 16  2  0
 16 17  1  0
 17 18  1  0
 18 19  2  0
 14  6  1  0
 19 15  1  0
 14  9  1  0
M  END
>  <HIPPO Pose ID>  (328) 
121516

>  <fragmenstein_outcome>  (328) 
acceptable

>  <energy_score>  (328) 
-33.01794

>  <distance_score>  (328) 
0.99106

>  <fragmenstein_mode>  (328) 
expansion

>  <HIPPO Compound ID>  (328) 
54207

>  <name>  (328) 
YLLMVIYYOHPJEG-GWCFXTLKSA-N

>  <ref_pdb>  (328) 
z0496a

>  <ref_mols>  (328) 
z0496a,z0628a

>  <csv_name>  (328) 
RdRp_knitwork_green_site_rna_tunnel_pure_split4000_batch010.csv

>  <fragmenstein_runtime>  (328) 
4.209565

>  <tags>  (328) 
['Fragmenstein placed']

>  <original ID>  (328) 
YLLMVIYYOHPJEG-GWCFXTLKSA-N

>  <fragmenstein_error>  (328) 
None

>  <original SMILES>  (328) 
C[C@H](OC(=O)[C@H]1CCc2ccccc21)c1cscn1

>  <inchikey>  (328) 
YLLMVIYYOHPJEG-GWCFXTLKSA-N

>  <SLURM_JOB_NAME>  (328) 
BulkDock.place:Flavi_NS5_RdRp:RdRp_knitwork_green_site_rna_tunnel_pure_split4000_batch010

>  <scratch_subdir>  (328) 
/opt/xchem-fragalysis-2/maxwin/BulkDock/SCRATCH/217081/C54207-P136

>  <alias>  (328) 
None

>  <SLURM_JOB_ID>  (328) 
217081

>  <exports>  (328) 
['/opt/xchem-fragalysis-2/maxwin/BulkDock/OUTPUTS/RdRp_knitwork_green_site_rna_tunnel_pure_split4000_batch010_217081.sdf']

$$$$
121778
     RDKit          3D

 20 21  0  0  0  0  0  0  0  0999 V2000
  -30.6328  -33.1646  -15.6747 C   0  0  0  0  0  0  0  0  0  0  0  0
  -31.2694  -32.0056  -16.1890 O   0  0  0  0  0  0  0  0  0  0  0  0
  -30.5656  -30.7804  -15.9881 C   0  0  0  0  0  0  0  0  0  0  0  0
  -29.2286  -30.6138  -16.7685 C   0  0  2  0  0  0  0  0  0  0  0  0
  -28.7483  -29.1610  -16.6289 C   0  0  0  0  0  0  0  0  0  0  0  0
  -29.4615  -31.0801  -18.2496 C   0  0  0  0  0  0  0  0  0  0  0  0
  -29.1092  -30.1369  -19.3015 N   0  0  0  0  0  0  0  0  0  0  0  0
  -29.8825  -29.9047  -20.4033 C   0  0  0  0  0  0  0  0  0  0  0  0
  -30.9729  -30.3775  -20.6703 O   0  0  0  0  0  0  0  0  0  0  0  0
  -29.2067  -29.0409  -21.2289 N   0  0  0  0  0  0  0  0  0  0  0  0
  -27.9698  -28.6127  -20.6470 C   0  0  2  0  0  0  0  0  0  0  0  0
  -26.8589  -28.5116  -21.6291 C   0  0  0  0  0  0  0  0  0  0  0  0
  -25.9575  -27.4566  -21.6896 C   0  0  0  0  0  0  0  0  0  0  0  0
  -25.0496  -27.5195  -23.1443 S   0  0  0  0  0  0  0  0  0  0  0  0
  -25.8302  -28.9953  -23.5348 C   0  0  0  0  0  0  0  0  0  0  0  0
  -26.7524  -29.4088  -22.6882 N   0  0  0  0  0  0  0  0  0  0  0  0
  -27.8575  -29.6185  -19.5224 C   0  0  0  0  0  0  0  0  0  0  0  0
  -26.8650  -29.8400  -18.8475 O   0  0  0  0  0  0  0  0  0  0  0  0
  -28.2298  -31.4867  -16.2015 O   0  0  0  0  0  0  0  0  0  0  0  0
  -27.7108  -31.1644  -14.9216 C   0  0  0  0  0  0  0  0  0  0  0  0
  1  2  1  0
  2  3  1  0
  3  4  1  0
  4  5  1  6
  4  6  1  0
  6  7  1  0
  7  8  1  0
  8  9  2  0
  8 10  1  0
 10 11  1  0
 11 12  1  6
 12 13  2  0
 13 14  1  0
 14 15  1  0
 15 16  2  0
 11 17  1  0
 17 18  2  0
  4 19  1  0
 19 20  1  0
 17  7  1  0
 16 12  1  0
M  END
>  <HIPPO Pose ID>  (329) 
121778

>  <fragmenstein_outcome>  (329) 
acceptable

>  <energy_score>  (329) 
-122.529305

>  <distance_score>  (329) 
0.874846

>  <fragmenstein_mode>  (329) 
expansion

>  <HIPPO Compound ID>  (329) 
46542

>  <name>  (329) 
ZINYTQLSNXZAQE-SKDRFNHKSA-N

>  <ref_pdb>  (329) 
z0496a

>  <ref_mols>  (329) 
z0496a,z0519a

>  <csv_name>  (329) 
RdRp_knitwork_green_site_rna_tunnel_pure_split4000_batch015.csv

>  <fragmenstein_runtime>  (329) 
8.058105

>  <tags>  (329) 
['Fragmenstein placed']

>  <original ID>  (329) 
ZINYTQLSNXZAQE-SKDRFNHKSA-N

>  <fragmenstein_error>  (329) 
None

>  <original SMILES>  (329) 
COC[C@](C)(CN1C(=O)N[C@H](c2cscn2)C1=O)OC

>  <inchikey>  (329) 
ZINYTQLSNXZAQE-SKDRFNHKSA-N

>  <SLURM_JOB_NAME>  (329) 
BulkDock.place:Flavi_NS5_RdRp:RdRp_knitwork_green_site_rna_tunnel_pure_split4000_batch015

>  <scratch_subdir>  (329) 
/opt/xchem-fragalysis-2/maxwin/BulkDock/SCRATCH/217086/C46542-P136

>  <alias>  (329) 
None

>  <SLURM_JOB_ID>  (329) 
217086

>  <exports>  (329) 
['/opt/xchem-fragalysis-2/maxwin/BulkDock/OUTPUTS/RdRp_knitwork_green_site_rna_tunnel_pure_split4000_batch015_217086.sdf']

$$$$
122531
     RDKit          3D

 22 24  0  0  0  0  0  0  0  0999 V2000
  -21.7857  -30.9174  -13.3363 C   0  0  0  0  0  0  0  0  0  0  0  0
  -21.2607  -31.0378  -14.7872 C   0  0  0  0  0  0  0  0  0  0  0  0
  -19.7802  -31.4480  -14.7186 C   0  0  0  0  0  0  0  0  0  0  0  0
  -21.3563  -29.6501  -15.4480 C   0  0  0  0  0  0  0  0  0  0  0  0
  -22.0742  -32.0329  -15.5997 C   0  0  0  0  0  0  0  0  0  0  0  0
  -23.3803  -32.4959  -15.3213 C   0  0  0  0  0  0  0  0  0  0  0  0
  -23.7294  -33.2611  -16.3974 C   0  0  0  0  0  0  0  0  0  0  0  0
  -25.0327  -33.8710  -16.5483 N   0  0  0  0  0  0  0  0  0  0  0  0
  -25.6183  -34.2762  -18.0458 S   0  0  0  0  0  0  0  0  0  0  0  0
  -26.9337  -34.8594  -17.8865 O   0  0  0  0  0  0  0  0  0  0  0  0
  -24.5799  -34.9673  -18.7807 O   0  0  0  0  0  0  0  0  0  0  0  0
  -25.8545  -32.6964  -18.8191 C   0  0  0  0  0  0  0  0  0  0  0  0
  -26.9617  -31.9131  -18.4662 C   0  0  0  0  0  0  0  0  0  0  0  0
  -27.2075  -30.6955  -19.1100 C   0  0  0  0  0  0  0  0  0  0  0  0
  -26.3099  -30.3350  -20.1109 C   0  0  0  0  0  0  0  0  0  0  0  0
  -26.3865  -29.2131  -20.8796 O   0  0  0  0  0  0  0  0  0  0  0  0
  -25.3647  -29.2876  -21.7691 C   0  0  0  0  0  0  0  0  0  0  0  0
  -24.6003  -30.4084  -21.5586 C   0  0  0  0  0  0  0  0  0  0  0  0
  -25.2134  -31.1017  -20.4912 C   0  0  0  0  0  0  0  0  0  0  0  0
  -24.9670  -32.3114  -19.8326 C   0  0  0  0  0  0  0  0  0  0  0  0
  -22.6274  -33.3255  -17.1965 N   0  0  0  0  0  0  0  0  0  0  0  0
  -21.6212  -32.5384  -16.7630 N   0  0  0  0  0  0  0  0  0  0  0  0
  1  2  1  0
  2  3  1  0
  2  4  1  0
  2  5  1  0
  5  6  1  0
  6  7  2  0
  7  8  1  0
  8  9  1  0
  9 10  2  0
  9 11  2  0
  9 12  1  0
 12 13  2  0
 13 14  1  0
 14 15  2  0
 15 16  1  0
 16 17  1  0
 17 18  2  0
 18 19  1  0
 19 20  2  0
  7 21  1  0
 21 22  1  0
 22  5  2  0
 20 12  1  0
 19 15  1  0
M  END
>  <HIPPO Pose ID>  (330) 
122531

>  <fragmenstein_outcome>  (330) 
acceptable

>  <energy_score>  (330) 
-60.843024

>  <distance_score>  (330) 
0.948479

>  <fragmenstein_mode>  (330) 
expansion

>  <HIPPO Compound ID>  (330) 
37624

>  <name>  (330) 
QACUQSHOLPRAQN-UHFFFAOYSA-N

>  <ref_pdb>  (330) 
3vws-a

>  <ref_mols>  (330) 
z0215a,3vws-a

>  <csv_name>  (330) 
RdRp_knitwork_green_site_rna_tunnel_pure_split4000_batch002.csv

>  <fragmenstein_runtime>  (330) 
44.090443

>  <tags>  (330) 
['Fragmenstein placed']

>  <original ID>  (330) 
QACUQSHOLPRAQN-UHFFFAOYSA-N

>  <fragmenstein_error>  (330) 
None

>  <original SMILES>  (330) 
CC(C)(C)c1cc(NS(=O)(=O)c2ccc3occc3c2)[nH]n1

>  <inchikey>  (330) 
QACUQSHOLPRAQN-UHFFFAOYSA-N

>  <SLURM_JOB_NAME>  (330) 
BulkDock.place:Flavi_NS5_RdRp:RdRp_knitwork_green_site_rna_tunnel_pure_split4000_batch002

>  <scratch_subdir>  (330) 
/opt/xchem-fragalysis-2/maxwin/BulkDock/SCRATCH/217073/C37624-P218

>  <alias>  (330) 
None

>  <SLURM_JOB_ID>  (330) 
217073

>  <exports>  (330) 
['/opt/xchem-fragalysis-2/maxwin/BulkDock/OUTPUTS/RdRp_knitwork_green_site_rna_tunnel_pure_split4000_batch002_217073.sdf']

$$$$
123470
     RDKit          3D

 19 21  0  0  0  0  0  0  0  0999 V2000
  -22.2937  -33.2996  -13.7986 C   0  0  0  0  0  0  0  0  0  0  0  0
  -23.7385  -33.0596  -14.0978 C   0  0  0  0  0  0  0  0  0  0  0  0
  -24.2176  -33.0403  -15.4062 C   0  0  0  0  0  0  0  0  0  0  0  0
  -25.5632  -32.7679  -15.6428 C   0  0  0  0  0  0  0  0  0  0  0  0
  -26.4106  -32.5222  -14.5611 C   0  0  0  0  0  0  0  0  0  0  0  0
  -27.8728  -32.1623  -14.8270 C   0  0  1  0  0  0  0  0  0  0  0  0
  -28.8034  -32.5060  -13.6624 C   0  0  0  0  0  0  0  0  0  0  0  0
  -28.0028  -30.7268  -15.1585 N   0  0  0  0  0  0  0  0  0  0  0  0
  -28.4376  -30.4791  -16.4174 C   0  0  0  0  0  0  0  0  0  0  0  0
  -27.6487  -30.0507  -17.3770 N   0  0  0  0  0  0  0  0  0  0  0  0
  -28.3342  -30.0258  -18.5659 C   0  0  0  0  0  0  0  0  0  0  0  0
  -29.6573  -30.3990  -18.4936 C   0  0  0  0  0  0  0  0  0  0  0  0
  -30.0748  -30.7591  -16.8894 S   0  0  0  0  0  0  0  0  0  0  0  0
  -30.6031  -30.4592  -19.6383 C   0  0  0  0  0  0  0  0  0  0  0  0
  -29.8474  -30.2835  -20.9629 C   0  0  0  0  0  0  0  0  0  0  0  0
  -28.6952  -29.2733  -20.9005 C   0  0  0  0  0  0  0  0  0  0  0  0
  -27.6607  -29.6543  -19.8369 C   0  0  0  0  0  0  0  0  0  0  0  0
  -25.9571  -32.5266  -13.2833 N   0  0  0  0  0  0  0  0  0  0  0  0
  -24.6452  -32.7841  -13.0822 C   0  0  0  0  0  0  0  0  0  0  0  0
  1  2  1  0
  2  3  2  0
  3  4  1  0
  4  5  2  0
  5  6  1  0
  6  7  1  1
  6  8  1  0
  8  9  1  0
  9 10  2  0
 10 11  1  0
 11 12  2  0
 12 13  1  0
 12 14  1  0
 14 15  1  0
 15 16  1  0
 16 17  1  0
  5 18  1  0
 18 19  2  0
 19  2  1  0
 13  9  1  0
 17 11  1  0
M  END
>  <HIPPO Pose ID>  (331) 
123470

>  <fragmenstein_outcome>  (331) 
acceptable

>  <energy_score>  (331) 
-88.897575

>  <distance_score>  (331) 
0.747162

>  <fragmenstein_mode>  (331) 
expansion

>  <HIPPO Compound ID>  (331) 
65064

>  <name>  (331) 
FUOLVSJORLCNTO-LLVKDONJSA-N

>  <ref_pdb>  (331) 
z0200a

>  <ref_mols>  (331) 
d0472b,z0200a

>  <csv_name>  (331) 
RdRp_knitwork_green_site_rna_tunnel_pure_split4000_batch008.csv

>  <fragmenstein_runtime>  (331) 
3.466757

>  <tags>  (331) 
['Fragmenstein placed']

>  <original ID>  (331) 
FUOLVSJORLCNTO-LLVKDONJSA-N

>  <fragmenstein_error>  (331) 
None

>  <original SMILES>  (331) 
Cc1ccc([C@@H](C)Nc2nc3c(s2)CCCC3)nc1

>  <inchikey>  (331) 
FUOLVSJORLCNTO-LLVKDONJSA-N

>  <SLURM_JOB_NAME>  (331) 
BulkDock.place:Flavi_NS5_RdRp:RdRp_knitwork_green_site_rna_tunnel_pure_split4000_batch008

>  <scratch_subdir>  (331) 
/opt/xchem-fragalysis-2/maxwin/BulkDock/SCRATCH/217079/C65064-P100

>  <alias>  (331) 
None

>  <SLURM_JOB_ID>  (331) 
217079

>  <exports>  (331) 
['/opt/xchem-fragalysis-2/maxwin/BulkDock/OUTPUTS/RdRp_knitwork_green_site_rna_tunnel_pure_split4000_batch008_217079.sdf']

$$$$
123732
     RDKit          3D

 22 24  0  0  0  0  0  0  0  0999 V2000
  -25.9661  -33.8516   -7.1273 N   0  0  0  0  0  0  0  0  0  0  0  0
  -26.6502  -33.6388   -8.3305 C   0  0  0  0  0  0  0  0  0  0  0  0
  -27.6900  -32.7123   -8.3924 C   0  0  0  0  0  0  0  0  0  0  0  0
  -28.3226  -32.4502   -9.6050 C   0  0  0  0  0  0  0  0  0  0  0  0
  -27.8485  -33.0870  -10.7428 C   0  0  0  0  0  0  0  0  0  0  0  0
  -28.4600  -32.7710  -12.0857 C   0  0  0  0  0  0  0  0  0  0  0  0
  -29.4483  -32.1593  -12.1568 O   0  0  0  0  0  0  0  0  0  0  0  0
  -27.5252  -33.2856  -13.1915 N   0  0  0  0  0  0  0  0  0  0  0  0
  -27.5567  -33.0760  -14.6164 C   0  0  0  0  0  0  0  0  0  0  0  0
  -26.8747  -31.7556  -14.9770 C   0  0  0  0  0  0  0  0  0  0  0  0
  -27.8519  -30.5728  -15.0594 C   0  0  0  0  0  0  0  0  0  0  0  0
  -28.3574  -30.4038  -16.4581 C   0  0  0  0  0  0  0  0  0  0  0  0
  -27.5870  -30.0554  -17.4717 N   0  0  0  0  0  0  0  0  0  0  0  0
  -28.3209  -30.0605  -18.6261 C   0  0  0  0  0  0  0  0  0  0  0  0
  -29.6469  -30.4029  -18.4823 C   0  0  0  0  0  0  0  0  0  0  0  0
  -30.0059  -30.6987  -16.8469 S   0  0  0  0  0  0  0  0  0  0  0  0
  -30.6387  -30.4742  -19.5868 C   0  0  0  0  0  0  0  0  0  0  0  0
  -29.9389  -30.3221  -20.9447 C   0  0  0  0  0  0  0  0  0  0  0  0
  -28.7664  -29.3354  -20.9493 C   0  0  0  0  0  0  0  0  0  0  0  0
  -27.6948  -29.7350  -19.9327 C   0  0  0  0  0  0  0  0  0  0  0  0
  -26.7763  -33.9287  -10.7484 N   0  0  0  0  0  0  0  0  0  0  0  0
  -26.2051  -34.1662   -9.5431 C   0  0  0  0  0  0  0  0  0  0  0  0
  1  2  1  0
  2  3  2  0
  3  4  1  0
  4  5  2  0
  5  6  1  0
  6  7  2  0
  6  8  1  0
  8  9  1  0
  9 10  1  0
 10 11  1  0
 11 12  1  0
 12 13  2  0
 13 14  1  0
 14 15  2  0
 15 16  1  0
 15 17  1  0
 17 18  1  0
 18 19  1  0
 19 20  1  0
  5 21  1  0
 21 22  2  0
 22  2  1  0
 16 12  1  0
 20 14  1  0
M  END
>  <HIPPO Pose ID>  (332) 
123732

>  <fragmenstein_outcome>  (332) 
acceptable

>  <energy_score>  (332) 
-76.89754

>  <distance_score>  (332) 
0.684943

>  <fragmenstein_mode>  (332) 
expansion

>  <HIPPO Compound ID>  (332) 
65103

>  <name>  (332) 
WJZPOMMIJOGDLS-UHFFFAOYSA-N

>  <ref_pdb>  (332) 
z0200a

>  <ref_mols>  (332) 
d0472b,z0200a

>  <csv_name>  (332) 
RdRp_knitwork_green_site_rna_tunnel_pure_split4000_batch008.csv

>  <fragmenstein_runtime>  (332) 
9.495754

>  <tags>  (332) 
['Fragmenstein placed']

>  <original ID>  (332) 
WJZPOMMIJOGDLS-UHFFFAOYSA-N

>  <fragmenstein_error>  (332) 
None

>  <original SMILES>  (332) 
Nc1ccc(C(=O)NCCCc2nc3c(s2)CCCC3)nc1

>  <inchikey>  (332) 
WJZPOMMIJOGDLS-UHFFFAOYSA-N

>  <SLURM_JOB_NAME>  (332) 
BulkDock.place:Flavi_NS5_RdRp:RdRp_knitwork_green_site_rna_tunnel_pure_split4000_batch008

>  <scratch_subdir>  (332) 
/opt/xchem-fragalysis-2/maxwin/BulkDock/SCRATCH/217079/C65103-P100

>  <alias>  (332) 
None

>  <SLURM_JOB_ID>  (332) 
217079

>  <exports>  (332) 
['/opt/xchem-fragalysis-2/maxwin/BulkDock/OUTPUTS/RdRp_knitwork_green_site_rna_tunnel_pure_split4000_batch008_217079.sdf']

$$$$
123778
     RDKit          3D

 22 24  0  0  0  0  0  0  0  0999 V2000
  -20.5019  -30.9704  -10.7789 C   0  0  0  0  0  0  0  0  0  0  0  0
  -21.8988  -31.4395  -11.0517 C   0  0  0  0  0  0  0  0  0  0  0  0
  -22.7364  -31.8393  -10.0075 C   0  0  0  0  0  0  0  0  0  0  0  0
  -24.0129  -32.2941  -10.3069 C   0  0  0  0  0  0  0  0  0  0  0  0
  -24.5047  -32.3878  -11.5597 N   0  0  0  0  0  0  0  0  0  0  0  0
  -23.6689  -31.9966  -12.5655 C   0  0  0  0  0  0  0  0  0  0  0  0
  -24.2373  -32.0598  -13.9639 C   0  0  0  0  0  0  0  0  0  0  0  0
  -23.5815  -31.7776  -14.8855 O   0  0  0  0  0  0  0  0  0  0  0  0
  -25.7126  -32.4838  -13.8829 N   0  0  0  0  0  0  0  0  0  0  0  0
  -26.6703  -32.7429  -14.9266 C   0  0  0  0  0  0  0  0  0  0  0  0
  -28.0147  -32.0969  -14.6034 C   0  0  0  0  0  0  0  0  0  0  0  0
  -28.0717  -30.6110  -14.9873 C   0  0  0  0  0  0  0  0  0  0  0  0
  -28.4554  -30.4304  -16.4227 C   0  0  0  0  0  0  0  0  0  0  0  0
  -27.6163  -30.1698  -17.4043 N   0  0  0  0  0  0  0  0  0  0  0  0
  -28.3013  -30.1289  -18.5923 C   0  0  0  0  0  0  0  0  0  0  0  0
  -29.6522  -30.3849  -18.5066 C   0  0  0  0  0  0  0  0  0  0  0  0
  -30.1087  -30.5929  -16.8862 S   0  0  0  0  0  0  0  0  0  0  0  0
  -30.5989  -30.4277  -19.6515 C   0  0  0  0  0  0  0  0  0  0  0  0
  -29.8407  -30.3009  -20.9799 C   0  0  0  0  0  0  0  0  0  0  0  0
  -28.6211  -29.3725  -20.9269 C   0  0  0  0  0  0  0  0  0  0  0  0
  -27.6087  -29.8436  -19.8761 C   0  0  0  0  0  0  0  0  0  0  0  0
  -22.3744  -31.5324  -12.3614 C   0  0  0  0  0  0  0  0  0  0  0  0
  1  2  1  0
  2  3  2  0
  3  4  1  0
  4  5  2  0
  5  6  1  0
  6  7  1  0
  7  8  2  0
  7  9  1  0
  9 10  1  0
 10 11  1  0
 11 12  1  0
 12 13  1  0
 13 14  2  0
 14 15  1  0
 15 16  2  0
 16 17  1  0
 16 18  1  0
 18 19  1  0
 19 20  1  0
 20 21  1  0
  6 22  2  0
 22  2  1  0
 17 13  1  0
 21 15  1  0
M  END
>  <HIPPO Pose ID>  (333) 
123778

>  <fragmenstein_outcome>  (333) 
acceptable

>  <energy_score>  (333) 
-55.564907

>  <distance_score>  (333) 
0.624801

>  <fragmenstein_mode>  (333) 
expansion

>  <HIPPO Compound ID>  (333) 
65105

>  <name>  (333) 
LPZWPRSDRGMAIP-UHFFFAOYSA-N

>  <ref_pdb>  (333) 
z0200a

>  <ref_mols>  (333) 
d0472b,z0200a

>  <csv_name>  (333) 
RdRp_knitwork_green_site_rna_tunnel_pure_split4000_batch008.csv

>  <fragmenstein_runtime>  (333) 
7.916515

>  <tags>  (333) 
['Fragmenstein placed']

>  <original ID>  (333) 
LPZWPRSDRGMAIP-UHFFFAOYSA-N

>  <fragmenstein_error>  (333) 
None

>  <original SMILES>  (333) 
Cc1ccnc(C(=O)NCCCc2nc3c(s2)CCCC3)c1

>  <inchikey>  (333) 
LPZWPRSDRGMAIP-UHFFFAOYSA-N

>  <SLURM_JOB_NAME>  (333) 
BulkDock.place:Flavi_NS5_RdRp:RdRp_knitwork_green_site_rna_tunnel_pure_split4000_batch008

>  <scratch_subdir>  (333) 
/opt/xchem-fragalysis-2/maxwin/BulkDock/SCRATCH/217079/C65105-P100

>  <alias>  (333) 
None

>  <SLURM_JOB_ID>  (333) 
217079

>  <exports>  (333) 
['/opt/xchem-fragalysis-2/maxwin/BulkDock/OUTPUTS/RdRp_knitwork_green_site_rna_tunnel_pure_split4000_batch008_217079.sdf']

$$$$
124223
     RDKit          3D

 22 24  0  0  0  0  0  0  0  0999 V2000
  -24.6655  -30.3295  -22.7281 C   0  0  0  0  0  0  0  0  0  0  0  0
  -26.0392  -30.9463  -22.8994 C   0  0  0  0  0  0  0  0  0  0  0  0
  -26.4674  -30.5056  -24.3095 C   0  0  0  0  0  0  0  0  0  0  0  0
  -25.8045  -32.4705  -22.7780 C   0  0  0  0  0  0  0  0  0  0  0  0
  -26.5516  -33.2632  -22.2162 O   0  0  0  0  0  0  0  0  0  0  0  0
  -24.6427  -32.8363  -23.4020 O   0  0  0  0  0  0  0  0  0  0  0  0
  -24.2526  -34.2159  -23.3615 C   0  0  0  0  0  0  0  0  0  0  0  0
  -23.2494  -34.5304  -22.2975 C   0  0  0  0  0  0  0  0  0  0  0  0
  -23.1710  -35.7304  -21.6076 C   0  0  0  0  0  0  0  0  0  0  0  0
  -24.1844  -37.1080  -21.8070 Cl  0  0  0  0  0  0  0  0  0  0  0  0
  -22.1348  -35.7237  -20.7300 O   0  0  0  0  0  0  0  0  0  0  0  0
  -21.5159  -34.5234  -20.8477 C   0  0  0  0  0  0  0  0  0  0  0  0
  -20.3901  -34.1331  -20.1213 C   0  0  0  0  0  0  0  0  0  0  0  0
  -19.8634  -32.8724  -20.4097 C   0  0  0  0  0  0  0  0  0  0  0  0
  -20.4536  -32.0595  -21.3784 C   0  0  0  0  0  0  0  0  0  0  0  0
  -21.5868  -32.4838  -22.0937 C   0  0  0  0  0  0  0  0  0  0  0  0
  -22.1443  -33.7473  -21.8159 C   0  0  0  0  0  0  0  0  0  0  0  0
  -27.0024  -30.4543  -21.8176 C   0  0  0  0  0  0  0  0  0  0  0  0
  -26.7930  -30.4187  -20.4136 C   0  0  0  0  0  0  0  0  0  0  0  0
  -27.9649  -29.9420  -19.8744 C   0  0  0  0  0  0  0  0  0  0  0  0
  -28.8028  -29.7454  -20.9263 N   0  0  0  0  0  0  0  0  0  0  0  0
  -28.2193  -29.9666  -22.1134 N   0  0  0  0  0  0  0  0  0  0  0  0
  1  2  1  0
  2  3  1  0
  2  4  1  0
  4  5  2  0
  4  6  1  0
  6  7  1  0
  7  8  1  0
  8  9  2  0
  9 10  1  0
  9 11  1  0
 11 12  1  0
 12 13  2  0
 13 14  1  0
 14 15  2  0
 15 16  1  0
 16 17  2  0
  2 18  1  0
 18 19  1  0
 19 20  2  0
 20 21  1  0
 21 22  1  0
 17  8  1  0
 22 18  2  0
 17 12  1  0
M  END
>  <HIPPO Pose ID>  (334) 
124223

>  <fragmenstein_outcome>  (334) 
acceptable

>  <energy_score>  (334) 
-25.37139

>  <distance_score>  (334) 
0.834631

>  <fragmenstein_mode>  (334) 
expansion

>  <HIPPO Compound ID>  (334) 
36433

>  <name>  (334) 
CADHXRRCQCIVEF-UHFFFAOYSA-N

>  <ref_pdb>  (334) 
z0215a

>  <ref_mols>  (334) 
z0215a,3vws-b

>  <csv_name>  (334) 
RdRp_knitwork_green_site_rna_tunnel_pure_split4000_batch007.csv

>  <fragmenstein_runtime>  (334) 
2.610107

>  <tags>  (334) 
['Fragmenstein placed']

>  <original ID>  (334) 
CADHXRRCQCIVEF-UHFFFAOYSA-N

>  <fragmenstein_error>  (334) 
None

>  <original SMILES>  (334) 
CC(C)(C(=O)OCc1c(Cl)oc2ccccc12)c1cc[nH]n1

>  <inchikey>  (334) 
CADHXRRCQCIVEF-UHFFFAOYSA-N

>  <SLURM_JOB_NAME>  (334) 
BulkDock.place:Flavi_NS5_RdRp:RdRp_knitwork_green_site_rna_tunnel_pure_split4000_batch007

>  <scratch_subdir>  (334) 
/opt/xchem-fragalysis-2/maxwin/BulkDock/SCRATCH/217078/C36433-P104

>  <alias>  (334) 
None

>  <SLURM_JOB_ID>  (334) 
217078

>  <exports>  (334) 
['/opt/xchem-fragalysis-2/maxwin/BulkDock/OUTPUTS/RdRp_knitwork_green_site_rna_tunnel_pure_split4000_batch007_217078.sdf']

$$$$
124231
     RDKit          3D

 22 24  0  0  0  0  0  0  0  0999 V2000
  -24.3385  -30.2559  -19.6504 C   0  0  0  0  0  0  0  0  0  0  0  0
  -25.3359  -30.4558  -20.8065 C   0  0  0  0  0  0  0  0  0  0  0  0
  -24.9856  -29.4599  -21.9330 C   0  0  0  0  0  0  0  0  0  0  0  0
  -25.1611  -31.9051  -21.3115 C   0  0  0  0  0  0  0  0  0  0  0  0
  -25.7635  -32.8821  -20.8829 O   0  0  0  0  0  0  0  0  0  0  0  0
  -24.1895  -31.9883  -22.2706 O   0  0  0  0  0  0  0  0  0  0  0  0
  -23.9633  -33.3077  -22.8013 C   0  0  0  0  0  0  0  0  0  0  0  0
  -22.9624  -34.0785  -22.0156 C   0  0  0  0  0  0  0  0  0  0  0  0
  -22.9980  -35.4337  -21.7251 C   0  0  0  0  0  0  0  0  0  0  0  0
  -24.2012  -36.5740  -22.1906 Cl  0  0  0  0  0  0  0  0  0  0  0  0
  -21.9019  -35.7966  -21.0081 O   0  0  0  0  0  0  0  0  0  0  0  0
  -21.1510  -34.6844  -20.8222 C   0  0  0  0  0  0  0  0  0  0  0  0
  -19.9411  -34.6399  -20.1340 C   0  0  0  0  0  0  0  0  0  0  0  0
  -19.3053  -33.3959  -20.0712 C   0  0  0  0  0  0  0  0  0  0  0  0
  -19.8709  -32.2655  -20.6672 C   0  0  0  0  0  0  0  0  0  0  0  0
  -21.0951  -32.3444  -21.3475 C   0  0  0  0  0  0  0  0  0  0  0  0
  -21.7515  -33.5887  -21.4281 C   0  0  0  0  0  0  0  0  0  0  0  0
  -26.7619  -30.2463  -20.3001 C   0  0  0  0  0  0  0  0  0  0  0  0
  -27.4497  -31.0122  -19.3247 C   0  0  0  0  0  0  0  0  0  0  0  0
  -28.6982  -30.4562  -19.2279 C   0  0  0  0  0  0  0  0  0  0  0  0
  -28.7044  -29.4084  -20.0888 N   0  0  0  0  0  0  0  0  0  0  0  0
  -27.5361  -29.2371  -20.7325 N   0  0  0  0  0  0  0  0  0  0  0  0
  1  2  1  0
  2  3  1  0
  2  4  1  0
  4  5  2  0
  4  6  1  0
  6  7  1  0
  7  8  1  0
  8  9  2  0
  9 10  1  0
  9 11  1  0
 11 12  1  0
 12 13  2  0
 13 14  1  0
 14 15  2  0
 15 16  1  0
 16 17  2  0
  2 18  1  0
 18 19  1  0
 19 20  2  0
 20 21  1  0
 21 22  1  0
 17  8  1  0
 22 18  2  0
 17 12  1  0
M  END
>  <HIPPO Pose ID>  (335) 
124231

>  <fragmenstein_outcome>  (335) 
acceptable

>  <energy_score>  (335) 
-32.976201

>  <distance_score>  (335) 
0.898753

>  <fragmenstein_mode>  (335) 
expansion

>  <HIPPO Compound ID>  (335) 
36433

>  <name>  (335) 
CADHXRRCQCIVEF-UHFFFAOYSA-N

>  <ref_pdb>  (335) 
3vws-b

>  <ref_mols>  (335) 
z0215a,3vws-b

>  <csv_name>  (335) 
RdRp_knitwork_green_site_rna_tunnel_pure_split4000_batch007.csv

>  <fragmenstein_runtime>  (335) 
4.038344

>  <tags>  (335) 
['Fragmenstein placed']

>  <original ID>  (335) 
CADHXRRCQCIVEF-UHFFFAOYSA-N

>  <fragmenstein_error>  (335) 
None

>  <original SMILES>  (335) 
CC(C)(C(=O)OCc1c(Cl)oc2ccccc12)c1cc[nH]n1

>  <inchikey>  (335) 
CADHXRRCQCIVEF-UHFFFAOYSA-N

>  <SLURM_JOB_NAME>  (335) 
BulkDock.place:Flavi_NS5_RdRp:RdRp_knitwork_green_site_rna_tunnel_pure_split4000_batch007

>  <scratch_subdir>  (335) 
/opt/xchem-fragalysis-2/maxwin/BulkDock/SCRATCH/217078/C36433-P217

>  <alias>  (335) 
None

>  <SLURM_JOB_ID>  (335) 
217078

>  <exports>  (335) 
['/opt/xchem-fragalysis-2/maxwin/BulkDock/OUTPUTS/RdRp_knitwork_green_site_rna_tunnel_pure_split4000_batch007_217078.sdf']

$$$$
124263
     RDKit          3D

 20 22  0  0  0  0  0  0  0  0999 V2000
  -29.5205  -30.1164  -19.1983 C   0  0  0  0  0  0  0  0  0  0  0  0
  -29.1556  -29.6861  -17.8422 N   0  0  0  0  0  0  0  0  0  0  0  0
  -29.8561  -30.3782  -16.7574 C   0  0  0  0  0  0  0  0  0  0  0  0
  -29.0722  -30.4446  -15.4543 C   0  0  0  0  0  0  0  0  0  0  0  0
  -27.6344  -30.8706  -15.6828 C   0  0  0  0  0  0  0  0  0  0  0  0
  -27.0215  -29.8967  -16.6417 C   0  0  0  0  0  0  0  0  0  0  0  0
  -25.6830  -29.5194  -16.4744 C   0  0  0  0  0  0  0  0  0  0  0  0
  -25.1547  -28.5051  -17.2555 C   0  0  0  0  0  0  0  0  0  0  0  0
  -25.9586  -27.9001  -18.2048 C   0  0  0  0  0  0  0  0  0  0  0  0
  -25.5373  -26.7059  -18.8004 N   0  0  0  0  0  0  0  0  0  0  0  0
  -24.7699  -26.6715  -20.2491 S   0  0  0  0  0  0  0  0  0  0  0  0
  -24.8414  -25.2720  -20.5933 O   0  0  0  0  0  0  0  0  0  0  0  0
  -23.5133  -27.3949  -20.1733 O   0  0  0  0  0  0  0  0  0  0  0  0
  -25.6558  -27.5062  -21.5164 C   0  0  0  0  0  0  0  0  0  0  0  0
  -26.4771  -28.6179  -21.6152 C   0  0  0  0  0  0  0  0  0  0  0  0
  -26.6786  -29.0996  -22.9326 N   0  0  0  0  0  0  0  0  0  0  0  0
  -25.9997  -28.3505  -23.8223 C   0  0  0  0  0  0  0  0  0  0  0  0
  -25.2515  -26.9711  -23.1054 S   0  0  0  0  0  0  0  0  0  0  0  0
  -27.2599  -28.3277  -18.4301 C   0  0  0  0  0  0  0  0  0  0  0  0
  -27.8154  -29.3454  -17.6626 C   0  0  0  0  0  0  0  0  0  0  0  0
  1  2  1  0
  2  3  1  0
  3  4  1  0
  4  5  1  0
  5  6  1  0
  6  7  2  0
  7  8  1  0
  8  9  2  0
  9 10  1  0
 10 11  1  0
 11 12  2  0
 11 13  2  0
 11 14  1  0
 14 15  2  0
 15 16  1  0
 16 17  2  0
 17 18  1  0
  9 19  1  0
 19 20  2  0
 20  2  1  0
 20  6  1  0
 18 14  1  0
M  END
>  <HIPPO Pose ID>  (336) 
124263

>  <fragmenstein_outcome>  (336) 
acceptable

>  <energy_score>  (336) 
-66.572785

>  <distance_score>  (336) 
0.942505

>  <fragmenstein_mode>  (336) 
expansion

>  <HIPPO Compound ID>  (336) 
36844

>  <name>  (336) 
UBFVZJDSFUAJAS-UHFFFAOYSA-N

>  <ref_pdb>  (336) 
z0165a

>  <ref_mols>  (336) 
z0165a,z0496a

>  <csv_name>  (336) 
RdRp_knitwork_green_site_rna_tunnel_pure_split4000_batch011.csv

>  <fragmenstein_runtime>  (336) 
3.170686

>  <tags>  (336) 
['Fragmenstein placed']

>  <original ID>  (336) 
UBFVZJDSFUAJAS-UHFFFAOYSA-N

>  <fragmenstein_error>  (336) 
None

>  <original SMILES>  (336) 
CN1CCCc2ccc(NS(=O)(=O)c3cncs3)cc21

>  <inchikey>  (336) 
UBFVZJDSFUAJAS-UHFFFAOYSA-N

>  <SLURM_JOB_NAME>  (336) 
BulkDock.place:Flavi_NS5_RdRp:RdRp_knitwork_green_site_rna_tunnel_pure_split4000_batch011

>  <scratch_subdir>  (336) 
/opt/xchem-fragalysis-2/maxwin/BulkDock/SCRATCH/217082/C36844-P3

>  <alias>  (336) 
None

>  <SLURM_JOB_ID>  (336) 
217082

>  <exports>  (336) 
['/opt/xchem-fragalysis-2/maxwin/BulkDock/OUTPUTS/RdRp_knitwork_green_site_rna_tunnel_pure_split4000_batch011_217082.sdf']

$$$$
124588
     RDKit          3D

 22 24  0  0  0  0  0  0  0  0999 V2000
  -24.6107  -31.6016  -13.1238 O   0  0  0  0  0  0  0  0  0  0  0  0
  -23.8349  -30.8176  -13.4942 C   0  0  0  0  0  0  0  0  0  0  0  0
  -24.1619  -29.5535  -14.2657 C   0  0  0  0  0  0  0  0  0  0  0  0
  -25.5432  -29.5683  -14.8927 C   0  0  0  0  0  0  0  0  0  0  0  0
  -25.8130  -30.7354  -15.8356 C   0  0  0  0  0  0  0  0  0  0  0  0
  -27.1386  -30.4957  -16.5091 C   0  0  0  0  0  0  0  0  0  0  0  0
  -27.1915  -30.0307  -17.8213 C   0  0  0  0  0  0  0  0  0  0  0  0
  -28.4321  -29.8150  -18.3938 C   0  0  0  0  0  0  0  0  0  0  0  0
  -29.6016  -30.0231  -17.7520 N   0  0  0  0  0  0  0  0  0  0  0  0
  -29.5259  -30.4659  -16.4807 C   0  0  0  0  0  0  0  0  0  0  0  0
  -28.3345  -30.7096  -15.8234 C   0  0  0  0  0  0  0  0  0  0  0  0
  -22.2956  -30.8311  -13.4353 N   0  0  0  0  0  0  0  0  0  0  0  0
  -21.3927  -31.8479  -12.9975 C   0  0  0  0  0  0  0  0  0  0  0  0
  -20.7310  -32.1948  -14.2797 C   0  0  0  0  0  0  0  0  0  0  0  0
  -19.4443  -31.8881  -14.6698 C   0  0  0  0  0  0  0  0  0  0  0  0
  -19.2550  -32.1771  -15.9824 O   0  0  0  0  0  0  0  0  0  0  0  0
  -20.4240  -32.6918  -16.4539 C   0  0  0  0  0  0  0  0  0  0  0  0
  -20.6638  -33.0806  -17.7694 C   0  0  0  0  0  0  0  0  0  0  0  0
  -21.9472  -33.5538  -18.0579 C   0  0  0  0  0  0  0  0  0  0  0  0
  -22.9236  -33.6347  -17.0652 C   0  0  0  0  0  0  0  0  0  0  0  0
  -22.6508  -33.2435  -15.7480 C   0  0  0  0  0  0  0  0  0  0  0  0
  -21.3666  -32.7548  -15.4380 C   0  0  0  0  0  0  0  0  0  0  0  0
  1  2  2  0
  2  3  1  0
  3  4  1  0
  4  5  1  0
  5  6  1  0
  6  7  2  0
  7  8  1  0
  8  9  2  0
  9 10  1  0
 10 11  2  0
  2 12  1  0
 12 13  1  0
 13 14  1  0
 14 15  2  0
 15 16  1  0
 16 17  1  0
 17 18  2  0
 18 19  1  0
 19 20  2  0
 20 21  1  0
 21 22  2  0
 11  6  1  0
 22 14  1  0
 22 17  1  0
M  END
>  <HIPPO Pose ID>  (337) 
124588

>  <fragmenstein_outcome>  (337) 
acceptable

>  <energy_score>  (337) 
-25.21299

>  <distance_score>  (337) 
0.982226

>  <fragmenstein_mode>  (337) 
expansion

>  <HIPPO Compound ID>  (337) 
35920

>  <name>  (337) 
XPDDKFHYDJHELS-UHFFFAOYSA-N

>  <ref_pdb>  (337) 
z0215a

>  <ref_mols>  (337) 
z0215a,3vws-a

>  <csv_name>  (337) 
RdRp_knitwork_green_site_rna_tunnel_pure_split4000_batch002.csv

>  <fragmenstein_runtime>  (337) 
3.360136

>  <tags>  (337) 
['Fragmenstein placed']

>  <original ID>  (337) 
XPDDKFHYDJHELS-UHFFFAOYSA-N

>  <fragmenstein_error>  (337) 
None

>  <original SMILES>  (337) 
O=C(CCCc1ccncc1)NCc1coc2ccccc12

>  <inchikey>  (337) 
XPDDKFHYDJHELS-UHFFFAOYSA-N

>  <SLURM_JOB_NAME>  (337) 
BulkDock.place:Flavi_NS5_RdRp:RdRp_knitwork_green_site_rna_tunnel_pure_split4000_batch002

>  <scratch_subdir>  (337) 
/opt/xchem-fragalysis-2/maxwin/BulkDock/SCRATCH/217073/C35920-P104

>  <alias>  (337) 
None

>  <SLURM_JOB_ID>  (337) 
217073

>  <exports>  (337) 
['/opt/xchem-fragalysis-2/maxwin/BulkDock/OUTPUTS/RdRp_knitwork_green_site_rna_tunnel_pure_split4000_batch002_217073.sdf']

$$$$
124610
     RDKit          3D

 22 24  0  0  0  0  0  0  0  0999 V2000
  -25.2704  -30.7747  -20.2499 N   0  0  0  0  0  0  0  0  0  0  0  0
  -25.7828  -30.5310  -19.2400 C   0  0  0  0  0  0  0  0  0  0  0  0
  -26.4643  -30.2665  -18.0225 C   0  0  0  0  0  0  0  0  0  0  0  0
  -27.8002  -29.8862  -18.0221 C   0  0  0  0  0  0  0  0  0  0  0  0
  -28.5363  -29.7560  -16.8977 N   0  0  0  0  0  0  0  0  0  0  0  0
  -27.9005  -30.0403  -15.7378 C   0  0  0  0  0  0  0  0  0  0  0  0
  -26.5534  -30.4150  -15.6408 C   0  0  0  0  0  0  0  0  0  0  0  0
  -25.9567  -30.7357  -14.3056 C   0  0  0  0  0  0  0  0  0  0  0  0
  -24.5461  -31.0022  -14.2793 O   0  0  0  0  0  0  0  0  0  0  0  0
  -24.1465  -31.6276  -13.1349 C   0  0  0  0  0  0  0  0  0  0  0  0
  -24.9217  -31.9780  -12.2459 O   0  0  0  0  0  0  0  0  0  0  0  0
  -22.6517  -31.7722  -12.9653 C   0  0  0  0  0  0  0  0  0  0  0  0
  -21.8034  -31.8232  -14.1871 C   0  0  0  0  0  0  0  0  0  0  0  0
  -20.5474  -31.2651  -14.3336 C   0  0  0  0  0  0  0  0  0  0  0  0
  -20.0200  -31.5557  -15.5489 O   0  0  0  0  0  0  0  0  0  0  0  0
  -20.9382  -32.3134  -16.2094 C   0  0  0  0  0  0  0  0  0  0  0  0
  -20.8019  -32.8108  -17.5037 C   0  0  0  0  0  0  0  0  0  0  0  0
  -21.8701  -33.5647  -17.9983 C   0  0  0  0  0  0  0  0  0  0  0  0
  -22.9922  -33.8209  -17.2120 C   0  0  0  0  0  0  0  0  0  0  0  0
  -23.0871  -33.3197  -15.9083 C   0  0  0  0  0  0  0  0  0  0  0  0
  -22.0487  -32.5235  -15.4042 C   0  0  0  0  0  0  0  0  0  0  0  0
  -25.8262  -30.5093  -16.8137 C   0  0  0  0  0  0  0  0  0  0  0  0
  1  2  3  0
  2  3  1  0
  3  4  2  0
  4  5  1  0
  5  6  2  0
  6  7  1  0
  7  8  1  0
  8  9  1  0
  9 10  1  0
 10 11  2  0
 10 12  1  0
 12 13  1  0
 13 14  2  0
 14 15  1  0
 15 16  1  0
 16 17  2  0
 17 18  1  0
 18 19  2  0
 19 20  1  0
 20 21  2  0
  7 22  2  0
 22  3  1  0
 21 13  1  0
 21 16  1  0
M  END
>  <HIPPO Pose ID>  (338) 
124610

>  <fragmenstein_outcome>  (338) 
acceptable

>  <energy_score>  (338) 
-37.527396

>  <distance_score>  (338) 
0.954619

>  <fragmenstein_mode>  (338) 
expansion

>  <HIPPO Compound ID>  (338) 
36000

>  <name>  (338) 
JOOSCZDDZAVMCO-UHFFFAOYSA-N

>  <ref_pdb>  (338) 
z0215a

>  <ref_mols>  (338) 
z0215a,3vws-a

>  <csv_name>  (338) 
RdRp_knitwork_green_site_rna_tunnel_pure_split4000_batch002.csv

>  <fragmenstein_runtime>  (338) 
1.740631

>  <tags>  (338) 
['Fragmenstein placed']

>  <original ID>  (338) 
JOOSCZDDZAVMCO-UHFFFAOYSA-N

>  <fragmenstein_error>  (338) 
None

>  <original SMILES>  (338) 
N#Cc1cncc(COC(=O)Cc2coc3ccccc23)c1

>  <inchikey>  (338) 
JOOSCZDDZAVMCO-UHFFFAOYSA-N

>  <SLURM_JOB_NAME>  (338) 
BulkDock.place:Flavi_NS5_RdRp:RdRp_knitwork_green_site_rna_tunnel_pure_split4000_batch002

>  <scratch_subdir>  (338) 
/opt/xchem-fragalysis-2/maxwin/BulkDock/SCRATCH/217073/C36000-P104

>  <alias>  (338) 
None

>  <SLURM_JOB_ID>  (338) 
217073

>  <exports>  (338) 
['/opt/xchem-fragalysis-2/maxwin/BulkDock/OUTPUTS/RdRp_knitwork_green_site_rna_tunnel_pure_split4000_batch002_217073.sdf']

$$$$
125160
     RDKit          3D

 23 25  0  0  0  0  0  0  0  0999 V2000
  -24.1038  -32.2417   -7.5458 N   0  0  0  0  0  0  0  0  0  0  0  0
  -24.2025  -32.2964   -8.7005 C   0  0  0  0  0  0  0  0  0  0  0  0
  -24.3155  -32.3652  -10.1228 C   0  0  0  0  0  0  0  0  0  0  0  0
  -23.2286  -32.0708  -10.9511 C   0  0  0  0  0  0  0  0  0  0  0  0
  -23.3773  -32.1460  -12.3355 C   0  0  0  0  0  0  0  0  0  0  0  0
  -24.6204  -32.5156  -12.8301 C   0  0  0  0  0  0  0  0  0  0  0  0
  -24.9032  -32.6055  -14.6007 S   0  0  0  0  0  0  0  0  0  0  0  0
  -25.3541  -33.9377  -14.9347 O   0  0  0  0  0  0  0  0  0  0  0  0
  -23.7409  -32.0216  -15.2490 O   0  0  0  0  0  0  0  0  0  0  0  0
  -26.1274  -31.5166  -14.8781 N   0  0  0  0  0  0  0  0  0  0  0  0
  -27.5284  -31.8566  -14.6623 C   0  0  0  0  0  0  0  0  0  0  0  0
  -28.3727  -30.5974  -14.8874 C   0  0  0  0  0  0  0  0  0  0  0  0
  -28.6614  -30.4091  -16.3418 C   0  0  0  0  0  0  0  0  0  0  0  0
  -27.7788  -30.0355  -17.2489 N   0  0  0  0  0  0  0  0  0  0  0  0
  -28.3785  -30.0396  -18.4879 C   0  0  0  0  0  0  0  0  0  0  0  0
  -29.7076  -30.4026  -18.5007 C   0  0  0  0  0  0  0  0  0  0  0  0
  -30.2397  -30.7387  -16.9276 S   0  0  0  0  0  0  0  0  0  0  0  0
  -30.5815  -30.4638  -19.7022 C   0  0  0  0  0  0  0  0  0  0  0  0
  -29.7515  -30.2791  -20.9803 C   0  0  0  0  0  0  0  0  0  0  0  0
  -28.5958  -29.2800  -20.8394 C   0  0  0  0  0  0  0  0  0  0  0  0
  -27.6273  -29.6860  -19.7218 C   0  0  0  0  0  0  0  0  0  0  0  0
  -25.7035  -32.8082  -12.0562 N   0  0  0  0  0  0  0  0  0  0  0  0
  -25.5177  -32.7283  -10.7173 C   0  0  0  0  0  0  0  0  0  0  0  0
  1  2  3  0
  2  3  1  0
  3  4  2  0
  4  5  1  0
  5  6  2  0
  6  7  1  0
  7  8  2  0
  7  9  2  0
  7 10  1  0
 10 11  1  0
 11 12  1  0
 12 13  1  0
 13 14  2  0
 14 15  1  0
 15 16  2  0
 16 17  1  0
 16 18  1  0
 18 19  1  0
 19 20  1  0
 20 21  1  0
  6 22  1  0
 22 23  2  0
 23  3  1  0
 17 13  1  0
 21 15  1  0
M  END
>  <HIPPO Pose ID>  (339) 
125160

>  <fragmenstein_outcome>  (339) 
acceptable

>  <energy_score>  (339) 
-314.573061

>  <distance_score>  (339) 
0.760118

>  <fragmenstein_mode>  (339) 
expansion

>  <HIPPO Compound ID>  (339) 
65371

>  <name>  (339) 
FTCHCPYTHJQDMI-UHFFFAOYSA-N

>  <ref_pdb>  (339) 
z0200a

>  <ref_mols>  (339) 
d0472b,z0200a

>  <csv_name>  (339) 
RdRp_knitwork_green_site_rna_tunnel_pure_split4000_batch008.csv

>  <fragmenstein_runtime>  (339) 
3.451812

>  <tags>  (339) 
['Fragmenstein placed']

>  <original ID>  (339) 
FTCHCPYTHJQDMI-UHFFFAOYSA-N

>  <fragmenstein_error>  (339) 
None

>  <original SMILES>  (339) 
N#Cc1ccc(S(=O)(=O)NCCc2nc3c(s2)CCCC3)nc1

>  <inchikey>  (339) 
FTCHCPYTHJQDMI-UHFFFAOYSA-N

>  <SLURM_JOB_NAME>  (339) 
BulkDock.place:Flavi_NS5_RdRp:RdRp_knitwork_green_site_rna_tunnel_pure_split4000_batch008

>  <scratch_subdir>  (339) 
/opt/xchem-fragalysis-2/maxwin/BulkDock/SCRATCH/217079/C65371-P100

>  <alias>  (339) 
None

>  <SLURM_JOB_ID>  (339) 
217079

>  <exports>  (339) 
['/opt/xchem-fragalysis-2/maxwin/BulkDock/OUTPUTS/RdRp_knitwork_green_site_rna_tunnel_pure_split4000_batch008_217079.sdf']

$$$$
125341
     RDKit          3D

 20 22  0  0  0  0  0  0  0  0999 V2000
  -22.3023  -37.3860  -12.8915 N   0  0  0  0  0  0  0  0  0  0  0  0
  -23.0927  -36.5444  -13.0094 C   0  0  0  0  0  0  0  0  0  0  0  0
  -24.0662  -35.5102  -13.1518 C   0  0  0  0  0  0  0  0  0  0  0  0
  -24.7981  -35.0444  -12.0654 C   0  0  0  0  0  0  0  0  0  0  0  0
  -25.7353  -34.0292  -12.2626 C   0  0  0  0  0  0  0  0  0  0  0  0
  -25.9292  -33.5029  -13.5395 C   0  0  0  0  0  0  0  0  0  0  0  0
  -26.8613  -32.4639  -13.6854 N   0  0  0  0  0  0  0  0  0  0  0  0
  -27.0253  -31.9685  -15.0581 C   0  0  0  0  0  0  0  0  0  0  0  0
  -27.8917  -30.7016  -15.0737 C   0  0  0  0  0  0  0  0  0  0  0  0
  -28.3685  -30.4360  -16.4639 C   0  0  0  0  0  0  0  0  0  0  0  0
  -27.5888  -30.0635  -17.4590 N   0  0  0  0  0  0  0  0  0  0  0  0
  -28.3116  -30.0424  -18.6224 C   0  0  0  0  0  0  0  0  0  0  0  0
  -29.6401  -30.3852  -18.5001 C   0  0  0  0  0  0  0  0  0  0  0  0
  -30.0201  -30.7003  -16.8752 S   0  0  0  0  0  0  0  0  0  0  0  0
  -30.6181  -30.4507  -19.6175 C   0  0  0  0  0  0  0  0  0  0  0  0
  -29.8995  -30.2981  -20.9650 C   0  0  0  0  0  0  0  0  0  0  0  0
  -28.7289  -29.3088  -20.9499 C   0  0  0  0  0  0  0  0  0  0  0  0
  -27.6692  -29.7051  -19.9186 C   0  0  0  0  0  0  0  0  0  0  0  0
  -25.2143  -33.9445  -14.5939 N   0  0  0  0  0  0  0  0  0  0  0  0
  -24.3086  -34.9315  -14.3855 C   0  0  0  0  0  0  0  0  0  0  0  0
  1  2  3  0
  2  3  1  0
  3  4  2  0
  4  5  1  0
  5  6  2  0
  6  7  1  0
  7  8  1  0
  8  9  1  0
  9 10  1  0
 10 11  2  0
 11 12  1  0
 12 13  2  0
 13 14  1  0
 13 15  1  0
 15 16  1  0
 16 17  1  0
 17 18  1  0
  6 19  1  0
 19 20  2  0
 20  3  1  0
 14 10  1  0
 18 12  1  0
M  END
>  <HIPPO Pose ID>  (340) 
125341

>  <fragmenstein_outcome>  (340) 
acceptable

>  <energy_score>  (340) 
-82.678518

>  <distance_score>  (340) 
0.705389

>  <fragmenstein_mode>  (340) 
expansion

>  <HIPPO Compound ID>  (340) 
65423

>  <name>  (340) 
IAUVFFSQXLVSCT-UHFFFAOYSA-N

>  <ref_pdb>  (340) 
z0200a

>  <ref_mols>  (340) 
d0472b,z0200a

>  <csv_name>  (340) 
RdRp_knitwork_green_site_rna_tunnel_pure_split4000_batch008.csv

>  <fragmenstein_runtime>  (340) 
4.339067

>  <tags>  (340) 
['Fragmenstein placed']

>  <original ID>  (340) 
IAUVFFSQXLVSCT-UHFFFAOYSA-N

>  <fragmenstein_error>  (340) 
None

>  <original SMILES>  (340) 
N#Cc1ccc(NCCc2nc3c(s2)CCCC3)nc1

>  <inchikey>  (340) 
IAUVFFSQXLVSCT-UHFFFAOYSA-N

>  <SLURM_JOB_NAME>  (340) 
BulkDock.place:Flavi_NS5_RdRp:RdRp_knitwork_green_site_rna_tunnel_pure_split4000_batch008

>  <scratch_subdir>  (340) 
/opt/xchem-fragalysis-2/maxwin/BulkDock/SCRATCH/217079/C65423-P100

>  <alias>  (340) 
None

>  <SLURM_JOB_ID>  (340) 
217079

>  <exports>  (340) 
['/opt/xchem-fragalysis-2/maxwin/BulkDock/OUTPUTS/RdRp_knitwork_green_site_rna_tunnel_pure_split4000_batch008_217079.sdf']

$$$$
125371
     RDKit          3D

 22 24  0  0  0  0  0  0  0  0999 V2000
  -35.2992  -36.6831  -13.9460 N   0  0  0  0  0  0  0  0  0  0  0  0
  -34.2431  -36.3244  -14.2695 C   0  0  0  0  0  0  0  0  0  0  0  0
  -32.9238  -35.8813  -14.5937 C   0  0  0  0  0  0  0  0  0  0  0  0
  -32.3200  -36.1881  -15.8106 C   0  0  0  0  0  0  0  0  0  0  0  0
  -31.0295  -35.7283  -16.0684 C   0  0  0  0  0  0  0  0  0  0  0  0
  -30.3936  -34.9669  -15.0999 C   0  0  0  0  0  0  0  0  0  0  0  0
  -29.1177  -34.5368  -15.3947 O   0  0  0  0  0  0  0  0  0  0  0  0
  -28.7213  -33.4008  -14.6148 C   0  0  0  0  0  0  0  0  0  0  0  0
  -27.4757  -32.7938  -15.2797 C   0  0  0  0  0  0  0  0  0  0  0  0
  -27.0499  -31.4838  -14.7707 N   0  0  0  0  0  0  0  0  0  0  0  0
  -28.0318  -30.3995  -14.9914 C   0  0  0  0  0  0  0  0  0  0  0  0
  -28.4496  -30.2418  -16.4283 C   0  0  0  0  0  0  0  0  0  0  0  0
  -27.6277  -29.9730  -17.4268 N   0  0  0  0  0  0  0  0  0  0  0  0
  -28.3207  -30.0087  -18.6090 C   0  0  0  0  0  0  0  0  0  0  0  0
  -29.6594  -30.3159  -18.5034 C   0  0  0  0  0  0  0  0  0  0  0  0
  -30.0940  -30.5021  -16.8737 S   0  0  0  0  0  0  0  0  0  0  0  0
  -30.6121  -30.4276  -19.6387 C   0  0  0  0  0  0  0  0  0  0  0  0
  -29.8699  -30.3118  -20.9770 C   0  0  0  0  0  0  0  0  0  0  0  0
  -28.6789  -29.3466  -20.9642 C   0  0  0  0  0  0  0  0  0  0  0  0
  -27.6460  -29.7466  -19.9064 C   0  0  0  0  0  0  0  0  0  0  0  0
  -30.9429  -34.6631  -13.9034 N   0  0  0  0  0  0  0  0  0  0  0  0
  -32.1962  -35.1294  -13.6810 C   0  0  0  0  0  0  0  0  0  0  0  0
  1  2  3  0
  2  3  1  0
  3  4  2  0
  4  5  1  0
  5  6  2  0
  6  7  1  0
  7  8  1  0
  8  9  1  0
  9 10  1  0
 10 11  1  0
 11 12  1  0
 12 13  2  0
 13 14  1  0
 14 15  2  0
 15 16  1  0
 15 17  1  0
 17 18  1  0
 18 19  1  0
 19 20  1  0
  6 21  1  0
 21 22  2  0
 22  3  1  0
 16 12  1  0
 20 14  1  0
M  END
>  <HIPPO Pose ID>  (341) 
125371

>  <fragmenstein_outcome>  (341) 
acceptable

>  <energy_score>  (341) 
-289.220133

>  <distance_score>  (341) 
0.661689

>  <fragmenstein_mode>  (341) 
expansion

>  <HIPPO Compound ID>  (341) 
65426

>  <name>  (341) 
QAFHPXVDASSEQY-UHFFFAOYSA-N

>  <ref_pdb>  (341) 
z0200a

>  <ref_mols>  (341) 
d0472b,z0200a

>  <csv_name>  (341) 
RdRp_knitwork_green_site_rna_tunnel_pure_split4000_batch008.csv

>  <fragmenstein_runtime>  (341) 
7.654448

>  <tags>  (341) 
['Fragmenstein placed']

>  <original ID>  (341) 
QAFHPXVDASSEQY-UHFFFAOYSA-N

>  <fragmenstein_error>  (341) 
None

>  <original SMILES>  (341) 
N#Cc1ccc(OCCNCc2nc3c(s2)CCCC3)nc1

>  <inchikey>  (341) 
QAFHPXVDASSEQY-UHFFFAOYSA-N

>  <SLURM_JOB_NAME>  (341) 
BulkDock.place:Flavi_NS5_RdRp:RdRp_knitwork_green_site_rna_tunnel_pure_split4000_batch008

>  <scratch_subdir>  (341) 
/opt/xchem-fragalysis-2/maxwin/BulkDock/SCRATCH/217079/C65426-P100

>  <alias>  (341) 
None

>  <SLURM_JOB_ID>  (341) 
217079

>  <exports>  (341) 
['/opt/xchem-fragalysis-2/maxwin/BulkDock/OUTPUTS/RdRp_knitwork_green_site_rna_tunnel_pure_split4000_batch008_217079.sdf']

$$$$
125575
     RDKit          3D

 22 24  0  0  0  0  0  0  0  0999 V2000
  -21.9115  -29.2238  -13.5825 C   0  0  0  0  0  0  0  0  0  0  0  0
  -21.3936  -29.5185  -14.9815 C   0  0  0  0  0  0  0  0  0  0  0  0
  -22.3155  -29.0521  -16.0496 N   0  0  0  0  0  0  0  0  0  0  0  0
  -23.6996  -29.4970  -15.9413 C   0  0  0  0  0  0  0  0  0  0  0  0
  -23.8345  -31.0230  -16.0869 C   0  0  0  0  0  0  0  0  0  0  0  0
  -21.7798  -29.0639  -17.3546 C   0  0  0  0  0  0  0  0  0  0  0  0
  -22.5502  -29.3884  -18.4900 C   0  0  0  0  0  0  0  0  0  0  0  0
  -21.9862  -29.5683  -19.7464 C   0  0  0  0  0  0  0  0  0  0  0  0
  -20.6195  -29.4010  -19.9162 C   0  0  0  0  0  0  0  0  0  0  0  0
  -19.9742  -29.7946  -21.2062 C   0  0  0  0  0  0  0  0  0  0  0  0
  -19.2597  -31.0542  -21.0458 N   0  0  0  0  0  0  0  0  0  0  0  0
  -19.9812  -32.2618  -20.9438 C   0  0  0  0  0  0  0  0  0  0  0  0
  -19.3649  -33.3476  -20.2908 C   0  0  0  0  0  0  0  0  0  0  0  0
  -19.9598  -34.6155  -20.2049 C   0  0  0  0  0  0  0  0  0  0  0  0
  -21.1860  -34.7618  -20.8404 C   0  0  0  0  0  0  0  0  0  0  0  0
  -21.9109  -35.9095  -20.9092 O   0  0  0  0  0  0  0  0  0  0  0  0
  -23.0261  -35.6340  -21.6328 C   0  0  0  0  0  0  0  0  0  0  0  0
  -23.0281  -34.3176  -22.0346 C   0  0  0  0  0  0  0  0  0  0  0  0
  -21.8334  -33.7427  -21.5237 C   0  0  0  0  0  0  0  0  0  0  0  0
  -21.2156  -32.4776  -21.5828 C   0  0  0  0  0  0  0  0  0  0  0  0
  -19.8548  -28.9514  -18.8390 C   0  0  0  0  0  0  0  0  0  0  0  0
  -20.4362  -28.7592  -17.5882 C   0  0  0  0  0  0  0  0  0  0  0  0
  1  2  1  0
  2  3  1  0
  3  4  1  0
  4  5  1  0
  3  6  1  0
  6  7  2  0
  7  8  1  0
  8  9  2  0
  9 10  1  0
 10 11  1  0
 11 12  1  0
 12 13  2  0
 13 14  1  0
 14 15  2  0
 15 16  1  0
 16 17  1  0
 17 18  2  0
 18 19  1  0
 19 20  2  0
  9 21  1  0
 21 22  2  0
 22  6  1  0
 20 12  1  0
 19 15  1  0
M  END
>  <HIPPO Pose ID>  (342) 
125575

>  <fragmenstein_outcome>  (342) 
acceptable

>  <energy_score>  (342) 
-35.785678

>  <distance_score>  (342) 
0.880767

>  <fragmenstein_mode>  (342) 
expansion

>  <HIPPO Compound ID>  (342) 
37075

>  <name>  (342) 
OBPLYCKQEWMODT-UHFFFAOYSA-N

>  <ref_pdb>  (342) 
3vws-b

>  <ref_mols>  (342) 
z0521a,3vws-b

>  <csv_name>  (342) 
RdRp_knitwork_green_site_rna_tunnel_pure_split4000_batch015.csv

>  <fragmenstein_runtime>  (342) 
12.200946

>  <tags>  (342) 
['Fragmenstein placed']

>  <original ID>  (342) 
OBPLYCKQEWMODT-UHFFFAOYSA-N

>  <fragmenstein_error>  (342) 
None

>  <original SMILES>  (342) 
CCN(CC)c1ccc(CNc2ccc3occc3c2)cc1

>  <inchikey>  (342) 
OBPLYCKQEWMODT-UHFFFAOYSA-N

>  <SLURM_JOB_NAME>  (342) 
BulkDock.place:Flavi_NS5_RdRp:RdRp_knitwork_green_site_rna_tunnel_pure_split4000_batch015

>  <scratch_subdir>  (342) 
/opt/xchem-fragalysis-2/maxwin/BulkDock/SCRATCH/217086/C37075-P217

>  <alias>  (342) 
None

>  <SLURM_JOB_ID>  (342) 
217086

>  <exports>  (342) 
['/opt/xchem-fragalysis-2/maxwin/BulkDock/OUTPUTS/RdRp_knitwork_green_site_rna_tunnel_pure_split4000_batch015_217086.sdf']

$$$$
125671
     RDKit          3D

 21 23  0  0  0  0  0  0  0  0999 V2000
  -30.3268  -38.7219  -12.8340 C   0  0  0  0  0  0  0  0  0  0  0  0
  -30.8312  -37.4983  -13.3491 O   0  0  0  0  0  0  0  0  0  0  0  0
  -29.9920  -36.4293  -13.2924 C   0  0  0  0  0  0  0  0  0  0  0  0
  -28.9881  -36.2381  -12.3471 C   0  0  0  0  0  0  0  0  0  0  0  0
  -28.1918  -35.0968  -12.4171 C   0  0  0  0  0  0  0  0  0  0  0  0
  -28.4553  -34.1719  -13.4198 C   0  0  0  0  0  0  0  0  0  0  0  0
  -27.6281  -32.9188  -13.5330 C   0  0  0  0  0  0  0  0  0  0  0  0
  -26.6917  -32.7646  -12.8585 O   0  0  0  0  0  0  0  0  0  0  0  0
  -28.2793  -31.9830  -14.5603 N   0  0  0  0  0  0  0  0  0  0  0  0
  -27.8626  -30.6919  -15.0478 C   0  0  0  0  0  0  0  0  0  0  0  0
  -28.3194  -30.4934  -16.4600 C   0  0  0  0  0  0  0  0  0  0  0  0
  -27.5301  -30.1933  -17.4757 N   0  0  0  0  0  0  0  0  0  0  0  0
  -28.2654  -30.1428  -18.6315 C   0  0  0  0  0  0  0  0  0  0  0  0
  -29.6094  -30.4089  -18.4920 C   0  0  0  0  0  0  0  0  0  0  0  0
  -29.9961  -30.6475  -16.8566 S   0  0  0  0  0  0  0  0  0  0  0  0
  -30.6008  -30.4449  -19.5991 C   0  0  0  0  0  0  0  0  0  0  0  0
  -29.8946  -30.3121  -20.9552 C   0  0  0  0  0  0  0  0  0  0  0  0
  -28.6805  -29.3760  -20.9480 C   0  0  0  0  0  0  0  0  0  0  0  0
  -27.6258  -29.8416  -19.9386 C   0  0  0  0  0  0  0  0  0  0  0  0
  -29.4587  -34.3026  -14.3301 N   0  0  0  0  0  0  0  0  0  0  0  0
  -30.1957  -35.4345  -14.2443 C   0  0  0  0  0  0  0  0  0  0  0  0
  1  2  1  0
  2  3  1  0
  3  4  2  0
  4  5  1  0
  5  6  2  0
  6  7  1  0
  7  8  2  0
  7  9  1  0
  9 10  1  0
 10 11  1  0
 11 12  2  0
 12 13  1  0
 13 14  2  0
 14 15  1  0
 14 16  1  0
 16 17  1  0
 17 18  1  0
 18 19  1  0
  6 20  1  0
 20 21  2  0
 21  3  1  0
 15 11  1  0
 19 13  1  0
M  END
>  <HIPPO Pose ID>  (343) 
125671

>  <fragmenstein_outcome>  (343) 
acceptable

>  <energy_score>  (343) 
-49.030555

>  <distance_score>  (343) 
0.631905

>  <fragmenstein_mode>  (343) 
expansion

>  <HIPPO Compound ID>  (343) 
65566

>  <name>  (343) 
NOIDHGIOWIVZTR-UHFFFAOYSA-N

>  <ref_pdb>  (343) 
z0200a

>  <ref_mols>  (343) 
d0472b,z0200a

>  <csv_name>  (343) 
RdRp_knitwork_green_site_rna_tunnel_pure_split4000_batch008.csv

>  <fragmenstein_runtime>  (343) 
4.779857

>  <tags>  (343) 
['Fragmenstein placed']

>  <original ID>  (343) 
NOIDHGIOWIVZTR-UHFFFAOYSA-N

>  <fragmenstein_error>  (343) 
None

>  <original SMILES>  (343) 
COc1ccc(C(=O)NCc2nc3c(s2)CCCC3)nc1

>  <inchikey>  (343) 
NOIDHGIOWIVZTR-UHFFFAOYSA-N

>  <SLURM_JOB_NAME>  (343) 
BulkDock.place:Flavi_NS5_RdRp:RdRp_knitwork_green_site_rna_tunnel_pure_split4000_batch008

>  <scratch_subdir>  (343) 
/opt/xchem-fragalysis-2/maxwin/BulkDock/SCRATCH/217079/C65566-P100

>  <alias>  (343) 
None

>  <SLURM_JOB_ID>  (343) 
217079

>  <exports>  (343) 
['/opt/xchem-fragalysis-2/maxwin/BulkDock/OUTPUTS/RdRp_knitwork_green_site_rna_tunnel_pure_split4000_batch008_217079.sdf']

$$$$
125728
     RDKit          3D

 18 20  0  0  0  0  0  0  0  0999 V2000
  -31.0639  -35.7918  -14.6757 C   0  0  0  0  0  0  0  0  0  0  0  0
  -30.1096  -35.4124  -13.7414 C   0  0  0  0  0  0  0  0  0  0  0  0
  -29.8610  -34.0568  -13.5302 C   0  0  0  0  0  0  0  0  0  0  0  0
  -30.5670  -33.1175  -14.2688 C   0  0  0  0  0  0  0  0  0  0  0  0
  -30.4116  -31.7521  -14.1217 N   0  0  0  0  0  0  0  0  0  0  0  0
  -29.0829  -31.1497  -14.0448 C   0  0  0  0  0  0  0  0  0  0  0  0
  -28.1380  -31.3775  -15.2221 C   0  0  0  0  0  0  0  0  0  0  0  0
  -28.5299  -30.7974  -16.5464 C   0  0  0  0  0  0  0  0  0  0  0  0
  -27.6546  -30.3564  -17.4338 N   0  0  0  0  0  0  0  0  0  0  0  0
  -28.2902  -30.1366  -18.6331 C   0  0  0  0  0  0  0  0  0  0  0  0
  -29.6389  -30.4096  -18.6434 C   0  0  0  0  0  0  0  0  0  0  0  0
  -30.1569  -30.8293  -17.0951 S   0  0  0  0  0  0  0  0  0  0  0  0
  -30.5359  -30.3483  -19.8235 C   0  0  0  0  0  0  0  0  0  0  0  0
  -29.7064  -30.1577  -21.0994 C   0  0  0  0  0  0  0  0  0  0  0  0
  -28.5101  -29.2134  -20.9244 C   0  0  0  0  0  0  0  0  0  0  0  0
  -27.5426  -29.7142  -19.8447 C   0  0  0  0  0  0  0  0  0  0  0  0
  -31.5074  -33.4757  -15.1633 N   0  0  0  0  0  0  0  0  0  0  0  0
  -31.7358  -34.7936  -15.3557 C   0  0  0  0  0  0  0  0  0  0  0  0
  1  2  2  0
  2  3  1  0
  3  4  2  0
  4  5  1  0
  5  6  1  0
  6  7  1  0
  7  8  1  0
  8  9  2  0
  9 10  1  0
 10 11  2  0
 11 12  1  0
 11 13  1  0
 13 14  1  0
 14 15  1  0
 15 16  1  0
  4 17  1  0
 17 18  2  0
 18  1  1  0
 12  8  1  0
 16 10  1  0
M  END
>  <HIPPO Pose ID>  (344) 
125728

>  <fragmenstein_outcome>  (344) 
acceptable

>  <energy_score>  (344) 
-65.134592

>  <distance_score>  (344) 
0.802235

>  <fragmenstein_mode>  (344) 
expansion

>  <HIPPO Compound ID>  (344) 
34187

>  <name>  (344) 
UFIIGHUQDRTAJN-UHFFFAOYSA-N

>  <ref_pdb>  (344) 
z0200a

>  <ref_mols>  (344) 
d0472b,z0200a

>  <csv_name>  (344) 
RdRp_knitwork_green_site_rna_tunnel_pure_split4000_batch011.csv

>  <fragmenstein_runtime>  (344) 
6.342934

>  <tags>  (344) 
['Fragmenstein placed']

>  <original ID>  (344) 
UFIIGHUQDRTAJN-UHFFFAOYSA-N

>  <fragmenstein_error>  (344) 
None

>  <original SMILES>  (344) 
c1ccc(NCCc2nc3c(s2)CCCC3)nc1

>  <inchikey>  (344) 
UFIIGHUQDRTAJN-UHFFFAOYSA-N

>  <SLURM_JOB_NAME>  (344) 
BulkDock.place:Flavi_NS5_RdRp:RdRp_knitwork_green_site_rna_tunnel_pure_split4000_batch011

>  <scratch_subdir>  (344) 
/opt/xchem-fragalysis-2/maxwin/BulkDock/SCRATCH/217082/C34187-P100

>  <alias>  (344) 
None

>  <SLURM_JOB_ID>  (344) 
217082

>  <exports>  (344) 
['/opt/xchem-fragalysis-2/maxwin/BulkDock/OUTPUTS/RdRp_knitwork_green_site_rna_tunnel_pure_split4000_batch011_217082.sdf']

$$$$
125962
     RDKit          3D

 22 25  0  0  0  0  0  0  0  0999 V2000
  -23.8315  -35.7883  -14.8658 C   0  0  0  0  0  0  0  0  0  0  0  0
  -24.8319  -35.5819  -15.8039 C   0  0  0  0  0  0  0  0  0  0  0  0
  -26.0825  -35.1414  -15.3790 C   0  0  0  0  0  0  0  0  0  0  0  0
  -26.3166  -34.9183  -14.0201 C   0  0  0  0  0  0  0  0  0  0  0  0
  -27.6962  -34.3995  -13.4163 C   0  0  0  0  0  0  0  0  0  0  0  0
  -27.7626  -32.8532  -13.5341 C   0  0  0  0  0  0  0  0  0  0  0  0
  -28.0298  -32.4241  -14.9108 N   0  0  0  0  0  0  0  0  0  0  0  0
  -27.9445  -30.9559  -15.0688 C   0  0  0  0  0  0  0  0  0  0  0  0
  -28.3830  -30.5664  -16.4576 C   0  0  0  0  0  0  0  0  0  0  0  0
  -27.5869  -30.1709  -17.4336 N   0  0  0  0  0  0  0  0  0  0  0  0
  -28.3024  -30.0879  -18.6011 C   0  0  0  0  0  0  0  0  0  0  0  0
  -29.6416  -30.3950  -18.5001 C   0  0  0  0  0  0  0  0  0  0  0  0
  -30.0516  -30.7172  -16.8848 S   0  0  0  0  0  0  0  0  0  0  0  0
  -30.6077  -30.4278  -19.6298 C   0  0  0  0  0  0  0  0  0  0  0  0
  -29.8704  -30.2740  -20.9671 C   0  0  0  0  0  0  0  0  0  0  0  0
  -28.6819  -29.3065  -20.9224 C   0  0  0  0  0  0  0  0  0  0  0  0
  -27.6407  -29.7408  -19.8858 C   0  0  0  0  0  0  0  0  0  0  0  0
  -28.0480  -34.8917  -11.9617 C   0  0  0  0  0  0  0  0  0  0  0  0
  -29.5107  -35.0485  -12.4127 C   0  0  0  0  0  0  0  0  0  0  0  0
  -28.9900  -35.1857  -13.8518 C   0  0  0  0  0  0  0  0  0  0  0  0
  -25.3382  -35.1291  -13.0986 N   0  0  0  0  0  0  0  0  0  0  0  0
  -24.1295  -35.5463  -13.5378 C   0  0  0  0  0  0  0  0  0  0  0  0
  1  2  2  0
  2  3  1  0
  3  4  2  0
  4  5  1  0
  5  6  1  0
  6  7  1  0
  7  8  1  0
  8  9  1  0
  9 10  2  0
 10 11  1  0
 11 12  2  0
 12 13  1  0
 12 14  1  0
 14 15  1  0
 15 16  1  0
 16 17  1  0
  5 18  1  0
 18 19  1  0
 19 20  1  0
  4 21  1  0
 21 22  2  0
 22  1  1  0
 20  5  1  0
 13  9  1  0
 17 11  1  0
M  END
>  <HIPPO Pose ID>  (345) 
125962

>  <fragmenstein_outcome>  (345) 
acceptable

>  <energy_score>  (345) 
-117.212664

>  <distance_score>  (345) 
0.709663

>  <fragmenstein_mode>  (345) 
expansion

>  <HIPPO Compound ID>  (345) 
49028

>  <name>  (345) 
FYXVLEIRQJBFFP-UHFFFAOYSA-N

>  <ref_pdb>  (345) 
z0200a

>  <ref_mols>  (345) 
d0472b,z0200a

>  <csv_name>  (345) 
RdRp_knitwork_green_site_rna_tunnel_pure_split4000_batch011.csv

>  <fragmenstein_runtime>  (345) 
4.006401

>  <tags>  (345) 
['Fragmenstein placed']

>  <original ID>  (345) 
FYXVLEIRQJBFFP-UHFFFAOYSA-N

>  <fragmenstein_error>  (345) 
None

>  <original SMILES>  (345) 
c1ccc(C2(CNCc3nc4c(s3)CCCC4)CCC2)nc1

>  <inchikey>  (345) 
FYXVLEIRQJBFFP-UHFFFAOYSA-N

>  <SLURM_JOB_NAME>  (345) 
BulkDock.place:Flavi_NS5_RdRp:RdRp_knitwork_green_site_rna_tunnel_pure_split4000_batch011

>  <scratch_subdir>  (345) 
/opt/xchem-fragalysis-2/maxwin/BulkDock/SCRATCH/217082/C49028-P100

>  <alias>  (345) 
None

>  <SLURM_JOB_ID>  (345) 
217082

>  <exports>  (345) 
['/opt/xchem-fragalysis-2/maxwin/BulkDock/OUTPUTS/RdRp_knitwork_green_site_rna_tunnel_pure_split4000_batch011_217082.sdf']

$$$$
126559
     RDKit          3D

 23 26  0  0  0  0  0  0  0  0999 V2000
  -28.3822  -30.0808  -15.6652 C   0  0  0  0  0  0  0  0  0  0  0  0
  -27.0781  -30.0635  -16.1395 C   0  0  0  0  0  0  0  0  0  0  0  0
  -26.8563  -29.9919  -17.5126 C   0  0  0  0  0  0  0  0  0  0  0  0
  -27.9507  -29.9401  -18.3779 C   0  0  0  0  0  0  0  0  0  0  0  0
  -27.7354  -30.0036  -19.8354 C   0  0  0  0  0  0  0  0  0  0  0  0
  -28.6751  -29.8406  -20.7848 N   0  0  0  0  0  0  0  0  0  0  0  0
  -28.0087  -30.1582  -21.9076 N   0  0  0  0  0  0  0  0  0  0  0  0
  -26.7055  -30.4776  -21.6512 C   0  0  0  0  0  0  0  0  0  0  0  0
  -25.7079  -30.9544  -22.6708 C   0  0  0  0  0  0  0  0  0  0  0  0
  -25.0164  -32.1483  -22.1687 N   0  0  0  0  0  0  0  0  0  0  0  0
  -23.9077  -32.5890  -23.0085 C   0  0  0  0  0  0  0  0  0  0  0  0
  -23.0667  -33.5339  -22.2088 C   0  0  0  0  0  0  0  0  0  0  0  0
  -23.3054  -34.8713  -21.9466 C   0  0  0  0  0  0  0  0  0  0  0  0
  -22.3419  -35.3982  -21.1449 O   0  0  0  0  0  0  0  0  0  0  0  0
  -21.4648  -34.3942  -20.8698 C   0  0  0  0  0  0  0  0  0  0  0  0
  -20.3382  -34.4992  -20.0542 C   0  0  0  0  0  0  0  0  0  0  0  0
  -19.5434  -33.3545  -19.9282 C   0  0  0  0  0  0  0  0  0  0  0  0
  -19.8828  -32.1675  -20.5798 C   0  0  0  0  0  0  0  0  0  0  0  0
  -21.0284  -32.0916  -21.3840 C   0  0  0  0  0  0  0  0  0  0  0  0
  -21.8432  -33.2310  -21.5286 C   0  0  0  0  0  0  0  0  0  0  0  0
  -26.4934  -30.3236  -20.3611 N   0  0  0  0  0  0  0  0  0  0  0  0
  -29.2302  -29.9378  -17.9212 N   0  0  0  0  0  0  0  0  0  0  0  0
  -29.4138  -30.0171  -16.5862 C   0  0  0  0  0  0  0  0  0  0  0  0
  1  2  2  0
  2  3  1  0
  3  4  2  0
  4  5  1  0
  5  6  2  0
  6  7  1  0
  7  8  1  0
  8  9  1  0
  9 10  1  0
 10 11  1  0
 11 12  1  0
 12 13  2  0
 13 14  1  0
 14 15  1  0
 15 16  2  0
 16 17  1  0
 17 18  2  0
 18 19  1  0
 19 20  2  0
  8 21  2  0
  4 22  1  0
 22 23  2  0
 23  1  1  0
 21  5  1  0
 20 12  1  0
 20 15  1  0
M  END
>  <HIPPO Pose ID>  (346) 
126559

>  <fragmenstein_outcome>  (346) 
acceptable

>  <energy_score>  (346) 
-47.830572

>  <distance_score>  (346) 
0.800928

>  <fragmenstein_mode>  (346) 
expansion

>  <HIPPO Compound ID>  (346) 
31386

>  <name>  (346) 
OMPQUBPYVHNBRC-UHFFFAOYSA-N

>  <ref_pdb>  (346) 
z0215a

>  <ref_mols>  (346) 
z0215a,3vws-b

>  <csv_name>  (346) 
RdRp_knitwork_green_site_rna_tunnel_pure_split4000_batch001.csv

>  <fragmenstein_runtime>  (346) 
1.968465

>  <tags>  (346) 
['Fragmenstein placed']

>  <original ID>  (346) 
OMPQUBPYVHNBRC-UHFFFAOYSA-N

>  <fragmenstein_error>  (346) 
None

>  <original SMILES>  (346) 
c1ccc(-c2n[nH]c(CNCc3coc4ccccc34)n2)nc1

>  <inchikey>  (346) 
OMPQUBPYVHNBRC-UHFFFAOYSA-N

>  <SLURM_JOB_NAME>  (346) 
BulkDock.place:Flavi_NS5_RdRp:RdRp_knitwork_green_site_rna_tunnel_pure_split4000_batch001

>  <scratch_subdir>  (346) 
/opt/xchem-fragalysis-2/maxwin/BulkDock/SCRATCH/217072/C31386-P104

>  <alias>  (346) 
None

>  <SLURM_JOB_ID>  (346) 
217072

>  <exports>  (346) 
['/opt/xchem-fragalysis-2/maxwin/BulkDock/OUTPUTS/RdRp_knitwork_green_site_rna_tunnel_pure_split4000_batch001_217072.sdf']

$$$$
126761
     RDKit          3D

 18 20  0  0  0  0  0  0  0  0999 V2000
  -22.1714  -33.8651  -15.3142 C   0  0  0  0  0  0  0  0  0  0  0  0
  -23.2278  -34.6354  -14.8434 C   0  0  0  0  0  0  0  0  0  0  0  0
  -24.4135  -34.0109  -14.4674 C   0  0  0  0  0  0  0  0  0  0  0  0
  -24.5034  -32.6239  -14.5645 C   0  0  0  0  0  0  0  0  0  0  0  0
  -25.7956  -31.9147  -14.1973 C   0  0  0  0  0  0  0  0  0  0  0  0
  -26.6683  -31.7826  -15.3613 N   0  0  0  0  0  0  0  0  0  0  0  0
  -27.7205  -30.7683  -15.1580 C   0  0  0  0  0  0  0  0  0  0  0  0
  -28.3062  -30.4294  -16.5039 C   0  0  0  0  0  0  0  0  0  0  0  0
  -27.5753  -29.9888  -17.5141 N   0  0  0  0  0  0  0  0  0  0  0  0
  -28.3313  -29.9844  -18.6524 C   0  0  0  0  0  0  0  0  0  0  0  0
  -29.6457  -30.3637  -18.4918 C   0  0  0  0  0  0  0  0  0  0  0  0
  -29.9651  -30.7124  -16.8573 S   0  0  0  0  0  0  0  0  0  0  0  0
  -30.6484  -30.4554  -19.5846 C   0  0  0  0  0  0  0  0  0  0  0  0
  -29.9636  -30.3057  -20.9499 C   0  0  0  0  0  0  0  0  0  0  0  0
  -28.8156  -29.2920  -20.9783 C   0  0  0  0  0  0  0  0  0  0  0  0
  -27.7267  -29.6415  -19.9640 C   0  0  0  0  0  0  0  0  0  0  0  0
  -23.4834  -31.8557  -15.0424 N   0  0  0  0  0  0  0  0  0  0  0  0
  -22.3460  -32.4940  -15.3971 C   0  0  0  0  0  0  0  0  0  0  0  0
  1  2  2  0
  2  3  1  0
  3  4  2  0
  4  5  1  0
  5  6  1  0
  6  7  1  0
  7  8  1  0
  8  9  2  0
  9 10  1  0
 10 11  2  0
 11 12  1  0
 11 13  1  0
 13 14  1  0
 14 15  1  0
 15 16  1  0
  4 17  1  0
 17 18  2  0
 18  1  1  0
 12  8  1  0
 16 10  1  0
M  END
>  <HIPPO Pose ID>  (347) 
126761

>  <fragmenstein_outcome>  (347) 
acceptable

>  <energy_score>  (347) 
-79.762459

>  <distance_score>  (347) 
0.752533

>  <fragmenstein_mode>  (347) 
expansion

>  <HIPPO Compound ID>  (347) 
51595

>  <name>  (347) 
QSSWLDADADIFHQ-UHFFFAOYSA-N

>  <ref_pdb>  (347) 
z0200a

>  <ref_mols>  (347) 
d0472b,z0200a

>  <csv_name>  (347) 
RdRp_knitwork_green_site_rna_tunnel_pure_split4000_batch011.csv

>  <fragmenstein_runtime>  (347) 
3.167356

>  <tags>  (347) 
['Fragmenstein placed']

>  <original ID>  (347) 
QSSWLDADADIFHQ-UHFFFAOYSA-N

>  <fragmenstein_error>  (347) 
None

>  <original SMILES>  (347) 
c1ccc(CNCc2nc3c(s2)CCCC3)nc1

>  <inchikey>  (347) 
QSSWLDADADIFHQ-UHFFFAOYSA-N

>  <SLURM_JOB_NAME>  (347) 
BulkDock.place:Flavi_NS5_RdRp:RdRp_knitwork_green_site_rna_tunnel_pure_split4000_batch011

>  <scratch_subdir>  (347) 
/opt/xchem-fragalysis-2/maxwin/BulkDock/SCRATCH/217082/C51595-P100

>  <alias>  (347) 
None

>  <SLURM_JOB_ID>  (347) 
217082

>  <exports>  (347) 
['/opt/xchem-fragalysis-2/maxwin/BulkDock/OUTPUTS/RdRp_knitwork_green_site_rna_tunnel_pure_split4000_batch011_217082.sdf']

$$$$
126992
     RDKit          3D

 17 19  0  0  0  0  0  0  0  0999 V2000
  -27.2112  -31.6550  -19.2421 C   0  0  0  0  0  0  0  0  0  0  0  0
  -26.9018  -32.8751  -18.6645 C   0  0  0  0  0  0  0  0  0  0  0  0
  -25.6359  -33.4116  -18.8382 C   0  0  0  0  0  0  0  0  0  0  0  0
  -24.6763  -32.6651  -19.5169 C   0  0  0  0  0  0  0  0  0  0  0  0
  -23.2742  -33.2069  -19.7304 C   0  0  0  0  0  0  0  0  0  0  0  0
  -22.7799  -34.1106  -18.6624 N   0  0  0  0  0  0  0  0  0  0  0  0
  -22.3997  -33.4162  -17.4867 C   0  0  0  0  0  0  0  0  0  0  0  0
  -23.2717  -33.4000  -16.3888 C   0  0  0  0  0  0  0  0  0  0  0  0
  -22.9845  -32.6820  -15.2187 C   0  0  0  0  0  0  0  0  0  0  0  0
  -21.7873  -31.9553  -15.1606 C   0  0  0  0  0  0  0  0  0  0  0  0
  -21.1476  -31.1187  -14.2086 C   0  0  0  0  0  0  0  0  0  0  0  0
  -19.9703  -30.7017  -14.7875 C   0  0  0  0  0  0  0  0  0  0  0  0
  -19.8336  -31.2330  -16.0304 O   0  0  0  0  0  0  0  0  0  0  0  0
  -20.9409  -31.9895  -16.2621 C   0  0  0  0  0  0  0  0  0  0  0  0
  -21.2002  -32.6947  -17.4360 C   0  0  0  0  0  0  0  0  0  0  0  0
  -24.9678  -31.4651  -20.0884 N   0  0  0  0  0  0  0  0  0  0  0  0
  -26.2216  -30.9940  -19.9428 C   0  0  0  0  0  0  0  0  0  0  0  0
  1  2  2  0
  2  3  1  0
  3  4  2  0
  4  5  1  0
  5  6  1  0
  6  7  1  0
  7  8  2  0
  8  9  1  0
  9 10  2  0
 10 11  1  0
 11 12  2  0
 12 13  1  0
 13 14  1  0
 14 15  2  0
  4 16  1  0
 16 17  2  0
 17  1  1  0
 15  7  1  0
 14 10  1  0
M  END
>  <HIPPO Pose ID>  (348) 
126992

>  <fragmenstein_outcome>  (348) 
acceptable

>  <energy_score>  (348) 
-19.39916

>  <distance_score>  (348) 
0.802331

>  <fragmenstein_mode>  (348) 
expansion

>  <HIPPO Compound ID>  (348) 
34650

>  <name>  (348) 
COECYTDITAWNNP-UHFFFAOYSA-N

>  <ref_pdb>  (348) 
3vws-a

>  <ref_mols>  (348) 
d0472b,3vws-a

>  <csv_name>  (348) 
RdRp_knitwork_green_site_rna_tunnel_pure_split4000_batch006.csv

>  <fragmenstein_runtime>  (348) 
2.741396

>  <tags>  (348) 
['Fragmenstein placed']

>  <original ID>  (348) 
COECYTDITAWNNP-UHFFFAOYSA-N

>  <fragmenstein_error>  (348) 
None

>  <original SMILES>  (348) 
c1ccc(CNc2ccc3ccoc3c2)nc1

>  <inchikey>  (348) 
COECYTDITAWNNP-UHFFFAOYSA-N

>  <SLURM_JOB_NAME>  (348) 
BulkDock.place:Flavi_NS5_RdRp:RdRp_knitwork_green_site_rna_tunnel_pure_split4000_batch006

>  <scratch_subdir>  (348) 
/opt/xchem-fragalysis-2/maxwin/BulkDock/SCRATCH/217077/C34650-P218

>  <alias>  (348) 
None

>  <SLURM_JOB_ID>  (348) 
217077

>  <exports>  (348) 
['/opt/xchem-fragalysis-2/maxwin/BulkDock/OUTPUTS/RdRp_knitwork_green_site_rna_tunnel_pure_split4000_batch006_217077.sdf']

$$$$
127405
     RDKit          3D

 23 25  0  0  0  0  0  0  0  0999 V2000
  -24.6372  -33.2857  -23.1777 C   0  0  0  0  0  0  0  0  0  0  0  0
  -24.5227  -33.3497  -21.6551 C   0  0  2  0  0  0  0  0  0  0  0  0
  -24.7718  -32.0055  -21.1620 O   0  0  0  0  0  0  0  0  0  0  0  0
  -24.9628  -31.8556  -19.8154 C   0  0  0  0  0  0  0  0  0  0  0  0
  -24.6474  -32.6829  -18.9762 O   0  0  0  0  0  0  0  0  0  0  0  0
  -25.6065  -30.5089  -19.5390 C   0  0  0  0  0  0  0  0  0  0  0  0
  -26.5441  -30.3564  -18.3610 C   0  0  0  0  0  0  0  0  0  0  0  0
  -27.8732  -29.9631  -18.5226 C   0  0  0  0  0  0  0  0  0  0  0  0
  -28.7771  -29.8774  -17.5142 N   0  0  0  0  0  0  0  0  0  0  0  0
  -28.3467  -30.2216  -16.2769 C   0  0  0  0  0  0  0  0  0  0  0  0
  -27.0418  -30.5968  -16.0069 C   0  0  0  0  0  0  0  0  0  0  0  0
  -26.6255  -31.0570  -14.7275 C   0  0  0  0  0  0  0  0  0  0  0  0
  -26.1803  -31.4682  -13.7380 N   0  0  0  0  0  0  0  0  0  0  0  0
  -26.1200  -30.6108  -17.0557 C   0  0  0  0  0  0  0  0  0  0  0  0
  -23.2251  -33.9755  -21.2510 C   0  0  0  0  0  0  0  0  0  0  0  0
  -23.0411  -35.3215  -20.9845 C   0  0  0  0  0  0  0  0  0  0  0  0
  -21.7810  -35.5725  -20.5542 O   0  0  0  0  0  0  0  0  0  0  0  0
  -21.1299  -34.3788  -20.5360 C   0  0  0  0  0  0  0  0  0  0  0  0
  -19.8221  -34.1818  -20.0953 C   0  0  0  0  0  0  0  0  0  0  0  0
  -19.3156  -32.8834  -20.1928 C   0  0  0  0  0  0  0  0  0  0  0  0
  -20.0953  -31.8460  -20.7075 C   0  0  0  0  0  0  0  0  0  0  0  0
  -21.4137  -32.0742  -21.1284 C   0  0  0  0  0  0  0  0  0  0  0  0
  -21.9521  -33.3692  -21.0228 C   0  0  0  0  0  0  0  0  0  0  0  0
  2  1  1  6
  2  3  1  0
  3  4  1  0
  4  5  2  0
  4  6  1  0
  6  7  1  0
  7  8  2  0
  8  9  1  0
  9 10  2  0
 10 11  1  0
 11 12  1  0
 12 13  3  0
 11 14  2  0
  2 15  1  0
 15 16  2  0
 16 17  1  0
 17 18  1  0
 18 19  2  0
 19 20  1  0
 20 21  2  0
 21 22  1  0
 22 23  2  0
 14  7  1  0
 23 15  1  0
 23 18  1  0
M  END
>  <HIPPO Pose ID>  (349) 
127405

>  <fragmenstein_outcome>  (349) 
acceptable

>  <energy_score>  (349) 
-37.506093

>  <distance_score>  (349) 
0.9631

>  <fragmenstein_mode>  (349) 
expansion

>  <HIPPO Compound ID>  (349) 
37094

>  <name>  (349) 
KBTQZKKLPHYBLF-LBPRGKRZSA-N

>  <ref_pdb>  (349) 
z0215a

>  <ref_mols>  (349) 
z0215a,3vws-b

>  <csv_name>  (349) 
RdRp_knitwork_green_site_rna_tunnel_pure_split4000_batch001.csv

>  <fragmenstein_runtime>  (349) 
4.158162

>  <tags>  (349) 
['Fragmenstein placed']

>  <original ID>  (349) 
KBTQZKKLPHYBLF-LBPRGKRZSA-N

>  <fragmenstein_error>  (349) 
None

>  <original SMILES>  (349) 
C[C@H](OC(=O)Cc1cncc(C#N)c1)c1coc2ccccc12

>  <inchikey>  (349) 
KBTQZKKLPHYBLF-LBPRGKRZSA-N

>  <SLURM_JOB_NAME>  (349) 
BulkDock.place:Flavi_NS5_RdRp:RdRp_knitwork_green_site_rna_tunnel_pure_split4000_batch001

>  <scratch_subdir>  (349) 
/opt/xchem-fragalysis-2/maxwin/BulkDock/SCRATCH/217072/C37094-P104

>  <alias>  (349) 
None

>  <SLURM_JOB_ID>  (349) 
217072

>  <exports>  (349) 
['/opt/xchem-fragalysis-2/maxwin/BulkDock/OUTPUTS/RdRp_knitwork_green_site_rna_tunnel_pure_split4000_batch001_217072.sdf']

$$$$
128376
     RDKit          3D

 21 23  0  0  0  0  0  0  0  0999 V2000
  -26.9340  -34.7863  -17.7764 O   0  0  0  0  0  0  0  0  0  0  0  0
  -25.6146  -34.2521  -18.0320 S   0  0  0  0  0  0  0  0  0  0  0  0
  -24.6396  -35.0085  -18.7826 O   0  0  0  0  0  0  0  0  0  0  0  0
  -24.9342  -33.7702  -16.5958 N   0  0  0  0  0  0  0  0  0  0  0  0
  -23.5052  -33.4569  -16.5090 C   0  0  0  0  0  0  0  0  0  0  0  0
  -23.3060  -32.3326  -15.4906 C   0  0  0  0  0  0  0  0  0  0  0  0
  -21.8949  -31.8332  -15.3238 C   0  0  0  0  0  0  0  0  0  0  0  0
  -21.0622  -31.5294  -16.4030 C   0  0  0  0  0  0  0  0  0  0  0  0
  -19.8045  -30.9703  -16.1753 C   0  0  0  0  0  0  0  0  0  0  0  0
  -19.4139  -30.7182  -14.8712 C   0  0  0  0  0  0  0  0  0  0  0  0
  -20.1844  -31.0045  -13.8029 N   0  0  0  0  0  0  0  0  0  0  0  0
  -21.3990  -31.5461  -14.0537 C   0  0  0  0  0  0  0  0  0  0  0  0
  -25.8488  -32.6941  -18.8462 C   0  0  0  0  0  0  0  0  0  0  0  0
  -26.9289  -31.8820  -18.4735 C   0  0  0  0  0  0  0  0  0  0  0  0
  -27.1638  -30.6659  -19.1222 C   0  0  0  0  0  0  0  0  0  0  0  0
  -26.2812  -30.3347  -20.1458 C   0  0  0  0  0  0  0  0  0  0  0  0
  -26.3482  -29.2145  -20.9174 O   0  0  0  0  0  0  0  0  0  0  0  0
  -25.3498  -29.3169  -21.8304 C   0  0  0  0  0  0  0  0  0  0  0  0
  -24.6091  -30.4564  -21.6331 C   0  0  0  0  0  0  0  0  0  0  0  0
  -25.2120  -31.1304  -20.5465 C   0  0  0  0  0  0  0  0  0  0  0  0
  -24.9774  -32.3412  -19.8839 C   0  0  0  0  0  0  0  0  0  0  0  0
  1  2  2  0
  2  3  2  0
  2  4  1  0
  4  5  1  0
  5  6  1  0
  6  7  1  0
  7  8  2  0
  8  9  1  0
  9 10  2  0
 10 11  1  0
 11 12  2  0
  2 13  1  0
 13 14  2  0
 14 15  1  0
 15 16  2  0
 16 17  1  0
 17 18  1  0
 18 19  2  0
 19 20  1  0
 20 21  2  0
 12  7  1  0
 21 13  1  0
 20 16  1  0
M  END
>  <HIPPO Pose ID>  (350) 
128376

>  <fragmenstein_outcome>  (350) 
acceptable

>  <energy_score>  (350) 
-38.68222

>  <distance_score>  (350) 
0.89363

>  <fragmenstein_mode>  (350) 
expansion

>  <HIPPO Compound ID>  (350) 
29567

>  <name>  (350) 
MDNWZEMGUFOUGR-UHFFFAOYSA-N

>  <ref_pdb>  (350) 
3vws-a

>  <ref_mols>  (350) 
z0215a,3vws-a

>  <csv_name>  (350) 
RdRp_knitwork_green_site_rna_tunnel_pure_split4000_batch002.csv

>  <fragmenstein_runtime>  (350) 
28.577281

>  <tags>  (350) 
['Fragmenstein placed']

>  <original ID>  (350) 
MDNWZEMGUFOUGR-UHFFFAOYSA-N

>  <fragmenstein_error>  (350) 
None

>  <original SMILES>  (350) 
O=S(=O)(NCCc1cccnc1)c1ccc2occc2c1

>  <inchikey>  (350) 
MDNWZEMGUFOUGR-UHFFFAOYSA-N

>  <SLURM_JOB_NAME>  (350) 
BulkDock.place:Flavi_NS5_RdRp:RdRp_knitwork_green_site_rna_tunnel_pure_split4000_batch002

>  <scratch_subdir>  (350) 
/opt/xchem-fragalysis-2/maxwin/BulkDock/SCRATCH/217073/C29567-P218

>  <alias>  (350) 
None

>  <SLURM_JOB_ID>  (350) 
217073

>  <exports>  (350) 
['/opt/xchem-fragalysis-2/maxwin/BulkDock/OUTPUTS/RdRp_knitwork_green_site_rna_tunnel_pure_split4000_batch002_217073.sdf']

$$$$
128552
     RDKit          3D

 19 21  0  0  0  0  0  0  0  0999 V2000
  -26.9936  -34.7512  -17.7588 O   0  0  0  0  0  0  0  0  0  0  0  0
  -25.6608  -34.2829  -18.0772 S   0  0  0  0  0  0  0  0  0  0  0  0
  -24.8231  -35.0758  -18.9481 O   0  0  0  0  0  0  0  0  0  0  0  0
  -24.8690  -33.9247  -16.6530 N   0  0  0  0  0  0  0  0  0  0  0  0
  -23.5602  -33.3636  -16.5957 C   0  0  0  0  0  0  0  0  0  0  0  0
  -22.5294  -33.7323  -17.4522 C   0  0  0  0  0  0  0  0  0  0  0  0
  -21.2889  -33.1411  -17.2784 C   0  0  0  0  0  0  0  0  0  0  0  0
  -21.0173  -32.2325  -16.3179 N   0  0  0  0  0  0  0  0  0  0  0  0
  -22.0223  -31.9278  -15.4733 C   0  0  0  0  0  0  0  0  0  0  0  0
  -23.2924  -32.4695  -15.5646 C   0  0  0  0  0  0  0  0  0  0  0  0
  -25.8576  -32.6880  -18.8315 C   0  0  0  0  0  0  0  0  0  0  0  0
  -26.9480  -31.8845  -18.4699 C   0  0  0  0  0  0  0  0  0  0  0  0
  -27.1784  -30.6636  -19.1119 C   0  0  0  0  0  0  0  0  0  0  0  0
  -26.2845  -30.3212  -20.1219 C   0  0  0  0  0  0  0  0  0  0  0  0
  -26.3519  -29.2001  -20.8920 O   0  0  0  0  0  0  0  0  0  0  0  0
  -25.3404  -29.2915  -21.7915 C   0  0  0  0  0  0  0  0  0  0  0  0
  -24.5920  -30.4245  -21.5867 C   0  0  0  0  0  0  0  0  0  0  0  0
  -25.2042  -31.1067  -20.5109 C   0  0  0  0  0  0  0  0  0  0  0  0
  -24.9721  -32.3198  -19.8525 C   0  0  0  0  0  0  0  0  0  0  0  0
  1  2  2  0
  2  3  2  0
  2  4  1  0
  4  5  1  0
  5  6  2  0
  6  7  1  0
  7  8  2  0
  8  9  1  0
  9 10  2  0
  2 11  1  0
 11 12  2  0
 12 13  1  0
 13 14  2  0
 14 15  1  0
 15 16  1  0
 16 17  2  0
 17 18  1  0
 18 19  2  0
 10  5  1  0
 19 11  1  0
 18 14  1  0
M  END
>  <HIPPO Pose ID>  (351) 
128552

>  <fragmenstein_outcome>  (351) 
acceptable

>  <energy_score>  (351) 
-39.78572

>  <distance_score>  (351) 
0.74462

>  <fragmenstein_mode>  (351) 
expansion

>  <HIPPO Compound ID>  (351) 
29918

>  <name>  (351) 
SYHGKHCRCYWMET-UHFFFAOYSA-N

>  <ref_pdb>  (351) 
3vws-a

>  <ref_mols>  (351) 
z0215a,3vws-a

>  <csv_name>  (351) 
RdRp_knitwork_green_site_rna_tunnel_pure_split4000_batch002.csv

>  <fragmenstein_runtime>  (351) 
14.244796

>  <tags>  (351) 
['Fragmenstein placed']

>  <original ID>  (351) 
SYHGKHCRCYWMET-UHFFFAOYSA-N

>  <fragmenstein_error>  (351) 
None

>  <original SMILES>  (351) 
O=S(=O)(Nc1ccncc1)c1ccc2occc2c1

>  <inchikey>  (351) 
SYHGKHCRCYWMET-UHFFFAOYSA-N

>  <SLURM_JOB_NAME>  (351) 
BulkDock.place:Flavi_NS5_RdRp:RdRp_knitwork_green_site_rna_tunnel_pure_split4000_batch002

>  <scratch_subdir>  (351) 
/opt/xchem-fragalysis-2/maxwin/BulkDock/SCRATCH/217073/C29918-P218

>  <alias>  (351) 
None

>  <SLURM_JOB_ID>  (351) 
217073

>  <exports>  (351) 
['/opt/xchem-fragalysis-2/maxwin/BulkDock/OUTPUTS/RdRp_knitwork_green_site_rna_tunnel_pure_split4000_batch002_217073.sdf']

$$$$
129038
     RDKit          3D

 28 31  0  0  0  0  0  0  0  0999 V2000
  -24.1465  -37.3197  -21.2543 O   0  0  0  0  0  0  0  0  0  0  0  0
  -23.9819  -36.2671  -21.8581 C   0  0  0  0  0  0  0  0  0  0  0  0
  -24.8805  -35.7939  -22.7667 O   0  0  0  0  0  0  0  0  0  0  0  0
  -26.0556  -35.2784  -22.1334 C   0  0  0  0  0  0  0  0  0  0  0  0
  -25.9400  -33.8128  -22.0949 C   0  0  0  0  0  0  0  0  0  0  0  0
  -25.7031  -32.6345  -22.1350 C   0  0  0  0  0  0  0  0  0  0  0  0
  -25.2781  -31.2341  -22.2592 C   0  0  0  0  0  0  0  0  0  0  0  0
  -26.5626  -30.1637  -22.9507 S   0  0  0  0  0  0  0  0  0  0  0  0
  -27.6021  -29.9975  -21.5739 C   0  0  0  0  0  0  0  0  0  0  0  0
  -28.8985  -29.7832  -21.6421 N   0  0  0  0  0  0  0  0  0  0  0  0
  -29.3571  -29.7231  -20.3419 N   0  0  0  0  0  0  0  0  0  0  0  0
  -28.3038  -29.8795  -19.5683 C   0  0  0  0  0  0  0  0  0  0  0  0
  -28.2051  -29.9711  -18.1201 C   0  0  0  0  0  0  0  0  0  0  0  0
  -26.9733  -29.9986  -17.4574 C   0  0  0  0  0  0  0  0  0  0  0  0
  -26.9627  -30.1588  -16.0818 C   0  0  0  0  0  0  0  0  0  0  0  0
  -28.0788  -30.2817  -15.3351 N   0  0  0  0  0  0  0  0  0  0  0  0
  -29.2549  -30.2560  -15.9944 C   0  0  0  0  0  0  0  0  0  0  0  0
  -29.3700  -30.0957  -17.3622 C   0  0  0  0  0  0  0  0  0  0  0  0
  -27.1516  -30.0552  -20.2838 O   0  0  0  0  0  0  0  0  0  0  0  0
  -22.8943  -35.3311  -21.6971 C   0  0  0  0  0  0  0  0  0  0  0  0
  -22.5866  -34.1426  -22.3387 C   0  0  0  0  0  0  0  0  0  0  0  0
  -21.5212  -33.5463  -21.6218 C   0  0  0  0  0  0  0  0  0  0  0  0
  -20.8165  -32.3329  -21.6950 C   0  0  0  0  0  0  0  0  0  0  0  0
  -19.7913  -32.1008  -20.7676 C   0  0  0  0  0  0  0  0  0  0  0  0
  -19.4473  -33.0633  -19.8145 C   0  0  0  0  0  0  0  0  0  0  0  0
  -20.1391  -34.2756  -19.7282 C   0  0  0  0  0  0  0  0  0  0  0  0
  -21.1757  -34.4627  -20.6379 C   0  0  0  0  0  0  0  0  0  0  0  0
  -21.9890  -35.5515  -20.6937 O   0  0  0  0  0  0  0  0  0  0  0  0
  1  2  2  0
  2  3  1  0
  3  4  1  0
  4  5  1  0
  5  6  3  0
  6  7  1  0
  7  8  1  0
  8  9  1  0
  9 10  2  0
 10 11  1  0
 11 12  2  0
 12 13  1  0
 13 14  2  0
 14 15  1  0
 15 16  2  0
 16 17  1  0
 17 18  2  0
 12 19  1  0
  2 20  1  0
 20 21  2  0
 21 22  1  0
 22 23  2  0
 23 24  1  0
 24 25  2  0
 25 26  1  0
 26 27  2  0
 27 28  1  0
 19  9  1  0
 28 20  1  0
 18 13  1  0
 27 22  1  0
M  END
>  <HIPPO Pose ID>  (352) 
129038

>  <fragmenstein_outcome>  (352) 
acceptable

>  <energy_score>  (352) 
-36.364527

>  <distance_score>  (352) 
0.487406

>  <fragmenstein_mode>  (352) 
expansion

>  <HIPPO Compound ID>  (352) 
37461

>  <name>  (352) 
ZUCZAINLLDMSCJ-UHFFFAOYSA-N

>  <ref_pdb>  (352) 
z0215a

>  <ref_mols>  (352) 
z0215a,3vws-b

>  <csv_name>  (352) 
RdRp_knitwork_green_site_rna_tunnel_pure_split4000_batch001.csv

>  <fragmenstein_runtime>  (352) 
3.323275

>  <tags>  (352) 
['Fragmenstein placed']

>  <original ID>  (352) 
ZUCZAINLLDMSCJ-UHFFFAOYSA-N

>  <fragmenstein_error>  (352) 
None

>  <original SMILES>  (352) 
O=C(OCC#CCSc1nnc(-c2ccncc2)o1)c1cc2ccccc2o1

>  <inchikey>  (352) 
ZUCZAINLLDMSCJ-UHFFFAOYSA-N

>  <SLURM_JOB_NAME>  (352) 
BulkDock.place:Flavi_NS5_RdRp:RdRp_knitwork_green_site_rna_tunnel_pure_split4000_batch001

>  <scratch_subdir>  (352) 
/opt/xchem-fragalysis-2/maxwin/BulkDock/SCRATCH/217072/C37461-P104

>  <alias>  (352) 
None

>  <SLURM_JOB_ID>  (352) 
217072

>  <exports>  (352) 
['/opt/xchem-fragalysis-2/maxwin/BulkDock/OUTPUTS/RdRp_knitwork_green_site_rna_tunnel_pure_split4000_batch001_217072.sdf']

$$$$
129097
     RDKit          3D

 17 18  0  0  0  0  0  0  0  0999 V2000
  -28.8101  -32.4098  -18.9804 C   0  0  0  0  0  0  0  0  0  0  0  0
  -28.8124  -31.7255  -20.3394 C   0  0  0  0  0  0  0  0  0  0  0  0
  -29.0017  -30.2737  -20.4207 N   0  0  0  0  0  0  0  0  0  0  0  0
  -27.9811  -29.4136  -19.7613 C   0  0  2  0  0  0  0  0  0  0  0  0
  -26.5549  -29.6126  -20.3113 C   0  0  0  0  0  0  0  0  0  0  0  0
  -26.3328  -29.1144  -21.7193 C   0  0  0  0  0  0  0  0  0  0  0  0
  -26.7165  -29.8757  -22.8244 C   0  0  0  0  0  0  0  0  0  0  0  0
  -26.3791  -29.4377  -24.0949 C   0  0  0  0  0  0  0  0  0  0  0  0
  -25.7142  -28.2927  -24.3258 N   0  0  0  0  0  0  0  0  0  0  0  0
  -25.3644  -27.5596  -23.2495 C   0  0  0  0  0  0  0  0  0  0  0  0
  -25.6558  -27.9134  -21.9443 C   0  0  0  0  0  0  0  0  0  0  0  0
  -28.1390  -29.4890  -18.2399 C   0  0  0  0  0  0  0  0  0  0  0  0
  -27.0798  -29.5769  -17.3414 C   0  0  0  0  0  0  0  0  0  0  0  0
  -27.3571  -29.7711  -15.9890 C   0  0  0  0  0  0  0  0  0  0  0  0
  -28.6737  -29.8691  -15.5622 C   0  0  0  0  0  0  0  0  0  0  0  0
  -29.6708  -29.7448  -16.5042 C   0  0  0  0  0  0  0  0  0  0  0  0
  -29.4337  -29.5381  -17.8119 N   0  0  0  0  0  0  0  0  0  0  0  0
  1  2  1  0
  2  3  1  0
  3  4  1  0
  4  5  1  1
  5  6  1  0
  6  7  2  0
  7  8  1  0
  8  9  2  0
  9 10  1  0
 10 11  2  0
  4 12  1  0
 12 13  2  0
 13 14  1  0
 14 15  2  0
 15 16  1  0
 16 17  2  0
 11  6  1  0
 17 12  1  0
M  END
>  <HIPPO Pose ID>  (353) 
129097

>  <fragmenstein_outcome>  (353) 
acceptable

>  <energy_score>  (353) 
-39.85698

>  <distance_score>  (353) 
0.989809

>  <fragmenstein_mode>  (353) 
expansion

>  <HIPPO Compound ID>  (353) 
42494

>  <name>  (353) 
XTFWKBFRLUIUHJ-CQSZACIVSA-N

>  <ref_pdb>  (353) 
z0221a

>  <ref_mols>  (353) 
z0221a,z0521a

>  <csv_name>  (353) 
RdRp_knitwork_green_site_rna_tunnel_pure_split4000_batch005.csv

>  <fragmenstein_runtime>  (353) 
4.8408

>  <tags>  (353) 
['Fragmenstein placed']

>  <original ID>  (353) 
XTFWKBFRLUIUHJ-CQSZACIVSA-N

>  <fragmenstein_error>  (353) 
None

>  <original SMILES>  (353) 
CCN[C@H](Cc1ccncc1)c1ccccn1

>  <inchikey>  (353) 
XTFWKBFRLUIUHJ-CQSZACIVSA-N

>  <SLURM_JOB_NAME>  (353) 
BulkDock.place:Flavi_NS5_RdRp:RdRp_knitwork_green_site_rna_tunnel_pure_split4000_batch005

>  <scratch_subdir>  (353) 
/opt/xchem-fragalysis-2/maxwin/BulkDock/SCRATCH/217076/C42494-P105

>  <alias>  (353) 
None

>  <SLURM_JOB_ID>  (353) 
217076

>  <exports>  (353) 
['/opt/xchem-fragalysis-2/maxwin/BulkDock/OUTPUTS/RdRp_knitwork_green_site_rna_tunnel_pure_split4000_batch005_217076.sdf']

$$$$
129183
     RDKit          3D

 18 19  0  0  0  0  0  0  0  0999 V2000
  -31.1776  -29.8920  -20.6394 C   0  0  0  0  0  0  0  0  0  0  0  0
  -29.8840  -29.2733  -20.2072 C   0  0  0  0  0  0  0  0  0  0  0  0
  -28.7178  -30.0748  -20.5162 N   0  0  0  0  0  0  0  0  0  0  0  0
  -27.5978  -29.5155  -19.7103 C   0  0  2  0  0  0  0  0  0  0  0  0
  -26.2892  -29.8863  -20.3895 C   0  0  0  0  0  0  0  0  0  0  0  0
  -26.1638  -29.2395  -21.7512 C   0  0  0  0  0  0  0  0  0  0  0  0
  -26.5779  -29.9376  -22.8890 C   0  0  0  0  0  0  0  0  0  0  0  0
  -26.3290  -29.3967  -24.1365 C   0  0  0  0  0  0  0  0  0  0  0  0
  -25.7306  -28.2050  -24.3104 N   0  0  0  0  0  0  0  0  0  0  0  0
  -25.3707  -27.5272  -23.1989 C   0  0  0  0  0  0  0  0  0  0  0  0
  -25.5779  -27.9842  -21.9099 C   0  0  0  0  0  0  0  0  0  0  0  0
  -27.6888  -29.9994  -18.2607 C   0  0  0  0  0  0  0  0  0  0  0  0
  -26.9096  -29.4338  -17.2625 C   0  0  0  0  0  0  0  0  0  0  0  0
  -27.1528  -29.8100  -15.9454 C   0  0  0  0  0  0  0  0  0  0  0  0
  -28.1731  -30.7116  -15.6571 C   0  0  0  0  0  0  0  0  0  0  0  0
  -28.9027  -31.2518  -16.7036 C   0  0  0  0  0  0  0  0  0  0  0  0
  -29.9905  -32.2472  -16.4394 C   0  0  0  0  0  0  0  0  0  0  0  0
  -28.6563  -30.9239  -17.9872 N   0  0  0  0  0  0  0  0  0  0  0  0
  1  2  1  0
  2  3  1  0
  3  4  1  0
  4  5  1  6
  5  6  1  0
  6  7  2  0
  7  8  1  0
  8  9  2  0
  9 10  1  0
 10 11  2  0
  4 12  1  0
 12 13  2  0
 13 14  1  0
 14 15  2  0
 15 16  1  0
 16 17  1  0
 16 18  2  0
 11  6  1  0
 18 12  1  0
M  END
>  <HIPPO Pose ID>  (354) 
129183

>  <fragmenstein_outcome>  (354) 
acceptable

>  <energy_score>  (354) 
-22.512693

>  <distance_score>  (354) 
0.903074

>  <fragmenstein_mode>  (354) 
expansion

>  <HIPPO Compound ID>  (354) 
42717

>  <name>  (354) 
YPPZHCHMXWQGCE-OAHLLOKOSA-N

>  <ref_pdb>  (354) 
z0221a

>  <ref_mols>  (354) 
z0221a,z0521a

>  <csv_name>  (354) 
RdRp_knitwork_green_site_rna_tunnel_pure_split4000_batch005.csv

>  <fragmenstein_runtime>  (354) 
2.6218

>  <tags>  (354) 
['Fragmenstein placed']

>  <original ID>  (354) 
YPPZHCHMXWQGCE-OAHLLOKOSA-N

>  <fragmenstein_error>  (354) 
None

>  <original SMILES>  (354) 
CCN[C@H](Cc1ccncc1)c1cccc(C)n1

>  <inchikey>  (354) 
YPPZHCHMXWQGCE-OAHLLOKOSA-N

>  <SLURM_JOB_NAME>  (354) 
BulkDock.place:Flavi_NS5_RdRp:RdRp_knitwork_green_site_rna_tunnel_pure_split4000_batch005

>  <scratch_subdir>  (354) 
/opt/xchem-fragalysis-2/maxwin/BulkDock/SCRATCH/217076/C42717-P105

>  <alias>  (354) 
None

>  <SLURM_JOB_ID>  (354) 
217076

>  <exports>  (354) 
['/opt/xchem-fragalysis-2/maxwin/BulkDock/OUTPUTS/RdRp_knitwork_green_site_rna_tunnel_pure_split4000_batch005_217076.sdf']

$$$$
129506
     RDKit          3D

 23 26  0  0  0  0  0  0  0  0999 V2000
  -25.0260  -30.0817  -23.2607 O   0  0  0  0  0  0  0  0  0  0  0  0
  -25.4729  -31.1892  -23.0083 C   0  0  0  0  0  0  0  0  0  0  0  0
  -26.6384  -31.4233  -22.3549 O   0  0  0  0  0  0  0  0  0  0  0  0
  -27.1594  -30.2773  -21.6778 C   0  0  1  0  0  0  0  0  0  0  0  0
  -28.6645  -30.3599  -21.5305 C   0  0  0  0  0  0  0  0  0  0  0  0
  -28.9600  -29.5040  -20.3137 C   0  0  0  0  0  0  0  0  0  0  0  0
  -27.7543  -29.6084  -19.4939 N   0  0  0  0  0  0  0  0  0  0  0  0
  -27.8919  -29.8403  -18.1355 C   0  0  0  0  0  0  0  0  0  0  0  0
  -26.7713  -29.9858  -17.3158 C   0  0  0  0  0  0  0  0  0  0  0  0
  -26.9277  -30.2367  -15.9548 C   0  0  0  0  0  0  0  0  0  0  0  0
  -28.2048  -30.3297  -15.4314 C   0  0  0  0  0  0  0  0  0  0  0  0
  -29.2680  -30.1599  -16.2928 C   0  0  0  0  0  0  0  0  0  0  0  0
  -29.1337  -29.9023  -17.6095 N   0  0  0  0  0  0  0  0  0  0  0  0
  -26.6980  -30.3059  -20.2255 C   0  0  0  0  0  0  0  0  0  0  0  0
  -24.8065  -32.4685  -23.3812 C   0  0  0  0  0  0  0  0  0  0  0  0
  -25.2937  -33.7249  -22.9831 C   0  0  0  0  0  0  0  0  0  0  0  0
  -24.6982  -34.9137  -23.4298 C   0  0  0  0  0  0  0  0  0  0  0  0
  -23.6050  -34.7790  -24.2821 C   0  0  0  0  0  0  0  0  0  0  0  0
  -22.9163  -35.8013  -24.8609 O   0  0  0  0  0  0  0  0  0  0  0  0
  -21.9376  -35.2376  -25.6187 C   0  0  0  0  0  0  0  0  0  0  0  0
  -21.9726  -33.8661  -25.5172 C   0  0  0  0  0  0  0  0  0  0  0  0
  -23.0618  -33.5589  -24.6621 C   0  0  0  0  0  0  0  0  0  0  0  0
  -23.6524  -32.3816  -24.1759 C   0  0  0  0  0  0  0  0  0  0  0  0
  1  2  2  0
  2  3  1  0
  4  3  1  6
  4  5  1  0
  5  6  1  0
  6  7  1  0
  7  8  1  0
  8  9  2  0
  9 10  1  0
 10 11  2  0
 11 12  1  0
 12 13  2  0
  7 14  1  0
  2 15  1  0
 15 16  2  0
 16 17  1  0
 17 18  2  0
 18 19  1  0
 19 20  1  0
 20 21  2  0
 21 22  1  0
 22 23  2  0
 14  4  1  0
 23 15  1  0
 13  8  1  0
 22 18  1  0
M  END
>  <HIPPO Pose ID>  (355) 
129506

>  <fragmenstein_outcome>  (355) 
acceptable

>  <energy_score>  (355) 
-41.84971

>  <distance_score>  (355) 
0.989137

>  <fragmenstein_mode>  (355) 
expansion

>  <HIPPO Compound ID>  (355) 
30607

>  <name>  (355) 
KYCIZOWWIVLNOQ-HNNXBMFYSA-N

>  <ref_pdb>  (355) 
z0215a

>  <ref_mols>  (355) 
z0215a,3vws-b

>  <csv_name>  (355) 
RdRp_knitwork_green_site_rna_tunnel_pure_split4000_batch001.csv

>  <fragmenstein_runtime>  (355) 
5.918931

>  <tags>  (355) 
['Fragmenstein placed']

>  <original ID>  (355) 
KYCIZOWWIVLNOQ-HNNXBMFYSA-N

>  <fragmenstein_error>  (355) 
None

>  <original SMILES>  (355) 
O=C(O[C@H]1CCN(c2ccccn2)C1)c1ccc2occc2c1

>  <inchikey>  (355) 
KYCIZOWWIVLNOQ-HNNXBMFYSA-N

>  <SLURM_JOB_NAME>  (355) 
BulkDock.place:Flavi_NS5_RdRp:RdRp_knitwork_green_site_rna_tunnel_pure_split4000_batch001

>  <scratch_subdir>  (355) 
/opt/xchem-fragalysis-2/maxwin/BulkDock/SCRATCH/217072/C30607-P104

>  <alias>  (355) 
None

>  <SLURM_JOB_ID>  (355) 
217072

>  <exports>  (355) 
['/opt/xchem-fragalysis-2/maxwin/BulkDock/OUTPUTS/RdRp_knitwork_green_site_rna_tunnel_pure_split4000_batch001_217072.sdf']

$$$$
130320
     RDKit          3D

 23 24  0  0  0  0  0  0  0  0999 V2000
  -21.0626  -33.0265  -23.8467 C   0  0  0  0  0  0  0  0  0  0  0  0
  -21.9351  -32.5250  -22.7074 C   0  0  1  0  0  0  0  0  0  0  0  0
  -21.1906  -31.5696  -21.9546 O   0  0  0  0  0  0  0  0  0  0  0  0
  -23.2311  -31.9170  -23.2311 C   0  0  0  0  0  0  0  0  0  0  0  0
  -24.1297  -31.5163  -22.1824 N   0  0  0  0  0  0  0  0  0  0  0  0
  -25.5760  -30.9583  -22.2571 C   0  0  0  0  0  0  0  0  0  0  0  0
  -26.2657  -30.8164  -23.1547 O   0  0  0  0  0  0  0  0  0  0  0  0
  -25.8467  -30.7453  -20.7342 N   0  0  0  0  0  0  0  0  0  0  0  0
  -27.0211  -30.4169  -20.0667 C   0  0  0  0  0  0  0  0  0  0  0  0
  -28.1177  -29.9567  -20.7891 C   0  0  0  0  0  0  0  0  0  0  0  0
  -29.3689  -29.8746  -20.1884 C   0  0  0  0  0  0  0  0  0  0  0  0
  -29.5275  -30.2118  -18.8474 C   0  0  0  0  0  0  0  0  0  0  0  0
  -28.4164  -30.6015  -18.0956 C   0  0  0  0  0  0  0  0  0  0  0  0
  -28.5718  -31.0048  -16.7454 N   0  0  0  0  0  0  0  0  0  0  0  0
  -29.6975  -30.9485  -15.9518 C   0  0  0  0  0  0  0  0  0  0  0  0
  -29.3984  -31.5824  -14.7581 C   0  0  0  0  0  0  0  0  0  0  0  0
  -30.2600  -31.8414  -13.5842 C   0  0  0  0  0  0  0  0  0  0  0  0
  -29.7679  -32.8105  -12.7717 F   0  0  0  0  0  0  0  0  0  0  0  0
  -31.5204  -32.1783  -13.9398 F   0  0  0  0  0  0  0  0  0  0  0  0
  -30.3699  -30.7310  -12.8088 F   0  0  0  0  0  0  0  0  0  0  0  0
  -28.0538  -31.9510  -14.9083 C   0  0  0  0  0  0  0  0  0  0  0  0
  -27.5409  -31.5771  -16.0795 N   0  0  0  0  0  0  0  0  0  0  0  0
  -27.1504  -30.6868  -18.7061 C   0  0  0  0  0  0  0  0  0  0  0  0
  2  1  1  6
  2  3  1  0
  2  4  1  0
  4  5  1  0
  5  6  1  0
  6  7  2  0
  6  8  1  0
  8  9  1  0
  9 10  2  0
 10 11  1  0
 11 12  2  0
 12 13  1  0
 13 14  1  0
 14 15  1  0
 15 16  2  0
 16 17  1  0
 17 18  1  0
 17 19  1  0
 17 20  1  0
 16 21  1  0
 21 22  2  0
 13 23  2  0
 23  9  1  0
 22 14  1  0
M  END
>  <HIPPO Pose ID>  (356) 
130320

>  <fragmenstein_outcome>  (356) 
acceptable

>  <energy_score>  (356) 
-20.795861

>  <distance_score>  (356) 
0.911121

>  <fragmenstein_mode>  (356) 
expansion

>  <HIPPO Compound ID>  (356) 
53969

>  <name>  (356) 
KEBNGUZEFSQLON-SECBINFHSA-N

>  <ref_pdb>  (356) 
z0653a

>  <ref_mols>  (356) 
z0211a,z0653a

>  <csv_name>  (356) 
RdRp_knitwork_green_site_rna_tunnel_pure_split4000_batch006.csv

>  <fragmenstein_runtime>  (356) 
3.655386

>  <tags>  (356) 
['Fragmenstein placed']

>  <original ID>  (356) 
KEBNGUZEFSQLON-SECBINFHSA-N

>  <fragmenstein_error>  (356) 
None

>  <original SMILES>  (356) 
C[C@@H](O)CNC(=O)Nc1cccc(-n2cc(C(F)(F)F)cn2)c1

>  <inchikey>  (356) 
KEBNGUZEFSQLON-SECBINFHSA-N

>  <SLURM_JOB_NAME>  (356) 
BulkDock.place:Flavi_NS5_RdRp:RdRp_knitwork_green_site_rna_tunnel_pure_split4000_batch006

>  <scratch_subdir>  (356) 
/opt/xchem-fragalysis-2/maxwin/BulkDock/SCRATCH/217077/C53969-P153

>  <alias>  (356) 
None

>  <SLURM_JOB_ID>  (356) 
217077

>  <exports>  (356) 
['/opt/xchem-fragalysis-2/maxwin/BulkDock/OUTPUTS/RdRp_knitwork_green_site_rna_tunnel_pure_split4000_batch006_217077.sdf']

$$$$
130431
     RDKit          3D

 19 19  0  0  0  0  0  0  0  0999 V2000
  -30.4476  -30.4413  -19.1915 C   0  0  0  0  0  0  0  0  0  0  0  0
  -28.9730  -30.4023  -19.1836 C   0  0  0  0  0  0  0  0  0  0  0  0
  -28.0804  -30.1901  -20.2087 C   0  0  0  0  0  0  0  0  0  0  0  0
  -26.8285  -30.5481  -19.6774 C   0  0  0  0  0  0  0  0  0  0  0  0
  -25.7136  -30.8192  -20.3994 N   0  0  0  0  0  0  0  0  0  0  0  0
  -25.5239  -30.9872  -21.9360 C   0  0  0  0  0  0  0  0  0  0  0  0
  -26.2665  -30.8437  -22.7899 O   0  0  0  0  0  0  0  0  0  0  0  0
  -24.0591  -31.5055  -21.9562 N   0  0  0  0  0  0  0  0  0  0  0  0
  -23.2722  -32.0349  -23.0402 C   0  0  0  0  0  0  0  0  0  0  0  0
  -21.7637  -32.0497  -22.7880 C   0  0  2  0  0  0  0  0  0  0  0  0
  -21.0853  -33.0935  -23.6659 C   0  0  0  0  0  0  0  0  0  0  0  0
  -21.4849  -32.3647  -21.4202 O   0  0  0  0  0  0  0  0  0  0  0  0
  -26.8873  -30.7599  -18.3616 N   0  0  0  0  0  0  0  0  0  0  0  0
  -28.2074  -30.7006  -18.0840 N   0  0  0  0  0  0  0  0  0  0  0  0
  -28.6789  -31.1884  -16.8070 C   0  0  0  0  0  0  0  0  0  0  0  0
  -28.6770  -30.1246  -15.7514 C   0  0  0  0  0  0  0  0  0  0  0  0
  -29.3033  -28.9974  -16.1508 F   0  0  0  0  0  0  0  0  0  0  0  0
  -29.3344  -30.5615  -14.6459 F   0  0  0  0  0  0  0  0  0  0  0  0
  -27.4306  -29.7954  -15.3485 F   0  0  0  0  0  0  0  0  0  0  0  0
  1  2  1  0
  2  3  2  0
  3  4  1  0
  4  5  1  0
  5  6  1  0
  6  7  2  0
  6  8  1  0
  8  9  1  0
  9 10  1  0
 10 11  1  6
 10 12  1  0
  4 13  2  0
 13 14  1  0
 14 15  1  0
 15 16  1  0
 16 17  1  0
 16 18  1  0
 16 19  1  0
 14  2  1  0
M  END
>  <HIPPO Pose ID>  (357) 
130431

>  <fragmenstein_outcome>  (357) 
acceptable

>  <energy_score>  (357) 
-8.969837

>  <distance_score>  (357) 
0.785891

>  <fragmenstein_mode>  (357) 
expansion

>  <HIPPO Compound ID>  (357) 
54733

>  <name>  (357) 
OHJDLUXFTXKBRG-ZETCQYMHSA-N

>  <ref_pdb>  (357) 
z0653a

>  <ref_mols>  (357) 
z0211a,z0653a

>  <csv_name>  (357) 
RdRp_knitwork_green_site_rna_tunnel_pure_split4000_batch006.csv

>  <fragmenstein_runtime>  (357) 
4.14878

>  <tags>  (357) 
['Fragmenstein placed']

>  <original ID>  (357) 
OHJDLUXFTXKBRG-ZETCQYMHSA-N

>  <fragmenstein_error>  (357) 
None

>  <original SMILES>  (357) 
Cc1cc(NC(=O)NC[C@H](C)O)nn1CC(F)(F)F

>  <inchikey>  (357) 
OHJDLUXFTXKBRG-ZETCQYMHSA-N

>  <SLURM_JOB_NAME>  (357) 
BulkDock.place:Flavi_NS5_RdRp:RdRp_knitwork_green_site_rna_tunnel_pure_split4000_batch006

>  <scratch_subdir>  (357) 
/opt/xchem-fragalysis-2/maxwin/BulkDock/SCRATCH/217077/C54733-P153

>  <alias>  (357) 
None

>  <SLURM_JOB_ID>  (357) 
217077

>  <exports>  (357) 
['/opt/xchem-fragalysis-2/maxwin/BulkDock/OUTPUTS/RdRp_knitwork_green_site_rna_tunnel_pure_split4000_batch006_217077.sdf']

$$$$
130448
     RDKit          3D

 27 30  0  0  0  0  0  0  0  0999 V2000
  -24.5907  -30.6363  -17.7324 C   0  0  0  0  0  0  0  0  0  0  0  0
  -26.0820  -30.6115  -17.8712 C   0  0  0  0  0  0  0  0  0  0  0  0
  -26.8757  -30.5929  -16.7375 C   0  0  0  0  0  0  0  0  0  0  0  0
  -28.2479  -30.5067  -16.9005 C   0  0  0  0  0  0  0  0  0  0  0  0
  -28.7923  -30.4351  -18.1856 C   0  0  0  0  0  0  0  0  0  0  0  0
  -30.1760  -30.3018  -18.3366 C   0  0  0  0  0  0  0  0  0  0  0  0
  -30.7381  -30.1721  -19.5979 C   0  0  0  0  0  0  0  0  0  0  0  0
  -29.9162  -30.1812  -20.7085 C   0  0  0  0  0  0  0  0  0  0  0  0
  -28.5383  -30.3855  -20.5774 C   0  0  0  0  0  0  0  0  0  0  0  0
  -27.9144  -30.4281  -21.8006 O   0  0  0  0  0  0  0  0  0  0  0  0
  -26.7650  -31.2360  -21.9199 C   0  0  0  0  0  0  0  0  0  0  0  0
  -26.8454  -32.7813  -21.7420 C   0  0  0  0  0  0  0  0  0  0  0  0
  -27.8241  -33.3958  -21.5802 O   0  0  0  0  0  0  0  0  0  0  0  0
  -25.3795  -33.2565  -21.9349 N   0  0  0  0  0  0  0  0  0  0  0  0
  -24.8038  -34.5896  -21.8725 C   0  0  1  0  0  0  0  0  0  0  0  0
  -25.1889  -35.4156  -23.0894 C   0  0  0  0  0  0  0  0  0  0  0  0
  -23.3240  -34.3756  -21.7873 C   0  0  0  0  0  0  0  0  0  0  0  0
  -22.5145  -33.4105  -22.3590 C   0  0  0  0  0  0  0  0  0  0  0  0
  -21.3328  -33.3852  -21.5914 C   0  0  0  0  0  0  0  0  0  0  0  0
  -20.2364  -32.5167  -21.4970 C   0  0  0  0  0  0  0  0  0  0  0  0
  -19.2324  -32.8117  -20.5680 C   0  0  0  0  0  0  0  0  0  0  0  0
  -19.2993  -33.9627  -19.7792 C   0  0  0  0  0  0  0  0  0  0  0  0
  -20.3950  -34.8317  -19.8509 C   0  0  0  0  0  0  0  0  0  0  0  0
  -21.4031  -34.4834  -20.7447 C   0  0  0  0  0  0  0  0  0  0  0  0
  -22.6093  -35.1092  -20.8813 O   0  0  0  0  0  0  0  0  0  0  0  0
  -27.9329  -30.4781  -19.3088 C   0  0  0  0  0  0  0  0  0  0  0  0
  -26.5903  -30.5637  -19.1284 N   0  0  0  0  0  0  0  0  0  0  0  0
  1  2  1  0
  2  3  2  0
  3  4  1  0
  4  5  2  0
  5  6  1  0
  6  7  2  0
  7  8  1  0
  8  9  2  0
  9 10  1  0
 10 11  1  0
 11 12  1  0
 12 13  2  0
 12 14  1  0
 14 15  1  0
 15 16  1  6
 15 17  1  0
 17 18  2  0
 18 19  1  0
 19 20  2  0
 20 21  1  0
 21 22  2  0
 22 23  1  0
 23 24  2  0
 24 25  1  0
  9 26  1  0
 26 27  2  0
 27  2  1  0
 26  5  1  0
 25 17  1  0
 24 19  1  0
M  END
>  <HIPPO Pose ID>  (358) 
130448

>  <fragmenstein_outcome>  (358) 
acceptable

>  <energy_score>  (358) 
-30.618876

>  <distance_score>  (358) 
0.957801

>  <fragmenstein_mode>  (358) 
expansion

>  <HIPPO Compound ID>  (358) 
31473

>  <name>  (358) 
QUBCQDBNUODRBY-HNNXBMFYSA-N

>  <ref_pdb>  (358) 
z1040a

>  <ref_mols>  (358) 
z1040a,3vws-b

>  <csv_name>  (358) 
RdRp_knitwork_green_site_rna_tunnel_pure_split4000_batch001.csv

>  <fragmenstein_runtime>  (358) 
5.525976

>  <tags>  (358) 
['Fragmenstein placed']

>  <original ID>  (358) 
QUBCQDBNUODRBY-HNNXBMFYSA-N

>  <fragmenstein_error>  (358) 
None

>  <original SMILES>  (358) 
Cc1ccc2cccc(OCC(=O)N[C@@H](C)c3cc4ccccc4o3)c2n1

>  <inchikey>  (358) 
QUBCQDBNUODRBY-HNNXBMFYSA-N

>  <SLURM_JOB_NAME>  (358) 
BulkDock.place:Flavi_NS5_RdRp:RdRp_knitwork_green_site_rna_tunnel_pure_split4000_batch001

>  <scratch_subdir>  (358) 
/opt/xchem-fragalysis-2/maxwin/BulkDock/SCRATCH/217072/C31473-P208

>  <alias>  (358) 
None

>  <SLURM_JOB_ID>  (358) 
217072

>  <exports>  (358) 
['/opt/xchem-fragalysis-2/maxwin/BulkDock/OUTPUTS/RdRp_knitwork_green_site_rna_tunnel_pure_split4000_batch001_217072.sdf']

$$$$
130458
     RDKit          3D

 18 18  0  0  0  0  0  0  0  0999 V2000
  -29.6233  -30.9117  -15.4212 C   0  0  0  0  0  0  0  0  0  0  0  0
  -29.6949  -30.2014  -16.7657 C   0  0  0  0  0  0  0  0  0  0  0  0
  -29.2489  -31.1212  -17.8991 C   0  0  1  0  0  0  0  0  0  0  0  0
  -30.3642  -32.0061  -18.4439 C   0  0  0  0  0  0  0  0  0  0  0  0
  -28.5354  -30.3857  -18.9415 N   0  0  0  0  0  0  0  0  0  0  0  0
  -29.1584  -29.9054  -20.0361 N   0  0  0  0  0  0  0  0  0  0  0  0
  -28.1696  -29.8279  -20.9348 C   0  0  0  0  0  0  0  0  0  0  0  0
  -26.9389  -30.2164  -20.3848 C   0  0  0  0  0  0  0  0  0  0  0  0
  -25.8002  -30.6125  -21.0131 N   0  0  0  0  0  0  0  0  0  0  0  0
  -25.5187  -30.8649  -22.5211 C   0  0  0  0  0  0  0  0  0  0  0  0
  -26.1838  -30.6996  -23.4324 O   0  0  0  0  0  0  0  0  0  0  0  0
  -24.1077  -31.5026  -22.4119 N   0  0  0  0  0  0  0  0  0  0  0  0
  -23.2961  -32.1433  -23.4103 C   0  0  0  0  0  0  0  0  0  0  0  0
  -21.7953  -32.0696  -23.1241 C   0  0  2  0  0  0  0  0  0  0  0  0
  -21.0551  -33.1574  -23.8889 C   0  0  0  0  0  0  0  0  0  0  0  0
  -21.5386  -32.2596  -21.7283 O   0  0  0  0  0  0  0  0  0  0  0  0
  -27.1658  -30.2960  -19.0330 C   0  0  0  0  0  0  0  0  0  0  0  0
  -26.2747  -30.4893  -17.8780 C   0  0  0  0  0  0  0  0  0  0  0  0
  1  2  1  0
  2  3  1  0
  3  4  1  6
  3  5  1  0
  5  6  1  0
  6  7  2  0
  7  8  1  0
  8  9  1  0
  9 10  1  0
 10 11  2  0
 10 12  1  0
 12 13  1  0
 13 14  1  0
 14 15  1  6
 14 16  1  0
  8 17  2  0
 17 18  1  0
 17  5  1  0
M  END
>  <HIPPO Pose ID>  (359) 
130458

>  <fragmenstein_outcome>  (359) 
acceptable

>  <energy_score>  (359) 
-19.728977

>  <distance_score>  (359) 
0.840132

>  <fragmenstein_mode>  (359) 
expansion

>  <HIPPO Compound ID>  (359) 
54862

>  <name>  (359) 
NQDDIJLQMDSXML-BDAKNGLRSA-N

>  <ref_pdb>  (359) 
z0653a

>  <ref_mols>  (359) 
z0211a,z0653a

>  <csv_name>  (359) 
RdRp_knitwork_green_site_rna_tunnel_pure_split4000_batch006.csv

>  <fragmenstein_runtime>  (359) 
5.238658

>  <tags>  (359) 
['Fragmenstein placed']

>  <original ID>  (359) 
NQDDIJLQMDSXML-BDAKNGLRSA-N

>  <fragmenstein_error>  (359) 
None

>  <original SMILES>  (359) 
CC[C@@H](C)n1ncc(NC(=O)NC[C@H](C)O)c1C

>  <inchikey>  (359) 
NQDDIJLQMDSXML-BDAKNGLRSA-N

>  <SLURM_JOB_NAME>  (359) 
BulkDock.place:Flavi_NS5_RdRp:RdRp_knitwork_green_site_rna_tunnel_pure_split4000_batch006

>  <scratch_subdir>  (359) 
/opt/xchem-fragalysis-2/maxwin/BulkDock/SCRATCH/217077/C54862-P153

>  <alias>  (359) 
None

>  <SLURM_JOB_ID>  (359) 
217077

>  <exports>  (359) 
['/opt/xchem-fragalysis-2/maxwin/BulkDock/OUTPUTS/RdRp_knitwork_green_site_rna_tunnel_pure_split4000_batch006_217077.sdf']

$$$$
130563
     RDKit          3D

 20 21  0  0  0  0  0  0  0  0999 V2000
  -30.5163  -30.2639  -19.7057 C   0  0  0  0  0  0  0  0  0  0  0  0
  -29.0492  -30.2803  -19.5678 C   0  0  0  0  0  0  0  0  0  0  0  0
  -28.0994  -30.1142  -20.5454 C   0  0  0  0  0  0  0  0  0  0  0  0
  -26.8764  -30.3841  -19.9209 C   0  0  0  0  0  0  0  0  0  0  0  0
  -25.7430  -30.6943  -20.5992 N   0  0  0  0  0  0  0  0  0  0  0  0
  -25.5129  -30.9351  -22.1218 C   0  0  0  0  0  0  0  0  0  0  0  0
  -26.2313  -30.8284  -23.0008 O   0  0  0  0  0  0  0  0  0  0  0  0
  -24.0522  -31.4605  -22.0788 N   0  0  0  0  0  0  0  0  0  0  0  0
  -23.1764  -31.8653  -23.1456 C   0  0  0  0  0  0  0  0  0  0  0  0
  -21.8881  -32.5128  -22.6561 C   0  0  1  0  0  0  0  0  0  0  0  0
  -21.0512  -33.0196  -23.8199 C   0  0  0  0  0  0  0  0  0  0  0  0
  -21.1061  -31.5896  -21.9041 O   0  0  0  0  0  0  0  0  0  0  0  0
  -26.9963  -30.4132  -18.5957 N   0  0  0  0  0  0  0  0  0  0  0  0
  -28.3484  -30.4843  -18.3904 N   0  0  0  0  0  0  0  0  0  0  0  0
  -28.8628  -30.7770  -17.1004 C   0  0  0  0  0  0  0  0  0  0  0  0
  -30.0876  -31.4330  -16.9283 C   0  0  0  0  0  0  0  0  0  0  0  0
  -30.5956  -31.6613  -15.6496 C   0  0  0  0  0  0  0  0  0  0  0  0
  -29.8663  -31.2745  -14.5347 C   0  0  0  0  0  0  0  0  0  0  0  0
  -28.6314  -30.6591  -14.7056 C   0  0  0  0  0  0  0  0  0  0  0  0
  -28.1224  -30.4126  -15.9775 C   0  0  0  0  0  0  0  0  0  0  0  0
  1  2  1  0
  2  3  2  0
  3  4  1  0
  4  5  1  0
  5  6  1  0
  6  7  2  0
  6  8  1  0
  8  9  1  0
  9 10  1  0
 10 11  1  6
 10 12  1  0
  4 13  2  0
 13 14  1  0
 14 15  1  0
 15 16  2  0
 16 17  1  0
 17 18  2  0
 18 19  1  0
 19 20  2  0
 14  2  1  0
 20 15  1  0
M  END
>  <HIPPO Pose ID>  (360) 
130563

>  <fragmenstein_outcome>  (360) 
acceptable

>  <energy_score>  (360) 
-18.439064

>  <distance_score>  (360) 
0.93572

>  <fragmenstein_mode>  (360) 
expansion

>  <HIPPO Compound ID>  (360) 
55149

>  <name>  (360) 
UIINRFUWBVLBNK-LLVKDONJSA-N

>  <ref_pdb>  (360) 
z0653a

>  <ref_mols>  (360) 
z0211a,z0653a

>  <csv_name>  (360) 
RdRp_knitwork_green_site_rna_tunnel_pure_split4000_batch006.csv

>  <fragmenstein_runtime>  (360) 
3.823321

>  <tags>  (360) 
['Fragmenstein placed']

>  <original ID>  (360) 
UIINRFUWBVLBNK-LLVKDONJSA-N

>  <fragmenstein_error>  (360) 
None

>  <original SMILES>  (360) 
Cc1cc(NC(=O)NC[C@@H](C)O)nn1-c1ccccc1

>  <inchikey>  (360) 
UIINRFUWBVLBNK-LLVKDONJSA-N

>  <SLURM_JOB_NAME>  (360) 
BulkDock.place:Flavi_NS5_RdRp:RdRp_knitwork_green_site_rna_tunnel_pure_split4000_batch006

>  <scratch_subdir>  (360) 
/opt/xchem-fragalysis-2/maxwin/BulkDock/SCRATCH/217077/C55149-P153

>  <alias>  (360) 
None

>  <SLURM_JOB_ID>  (360) 
217077

>  <exports>  (360) 
['/opt/xchem-fragalysis-2/maxwin/BulkDock/OUTPUTS/RdRp_knitwork_green_site_rna_tunnel_pure_split4000_batch006_217077.sdf']

$$$$
130601
     RDKit          3D

 27 30  0  0  0  0  0  0  0  0999 V2000
  -24.7393  -36.5786  -22.2941 C   0  0  0  0  0  0  0  0  0  0  0  0
  -24.5614  -35.1128  -22.6574 C   0  0  1  0  0  0  0  0  0  0  0  0
  -25.6047  -34.2982  -22.0710 N   0  0  0  0  0  0  0  0  0  0  0  0
  -26.2317  -32.9538  -22.5548 C   0  0  0  0  0  0  0  0  0  0  0  0
  -26.0532  -32.3455  -23.5368 O   0  0  0  0  0  0  0  0  0  0  0  0
  -27.1882  -32.4980  -21.4325 C   0  0  0  0  0  0  0  0  0  0  0  0
  -27.5659  -31.1174  -21.5271 O   0  0  0  0  0  0  0  0  0  0  0  0
  -28.2150  -30.7274  -20.3709 C   0  0  0  0  0  0  0  0  0  0  0  0
  -29.5776  -30.4568  -20.4875 C   0  0  0  0  0  0  0  0  0  0  0  0
  -30.3295  -30.2487  -19.3424 C   0  0  0  0  0  0  0  0  0  0  0  0
  -29.7002  -30.2743  -18.0975 C   0  0  0  0  0  0  0  0  0  0  0  0
  -30.6637  -30.1065  -16.6778 Cl  0  0  0  0  0  0  0  0  0  0  0  0
  -28.3034  -30.4373  -17.9814 C   0  0  0  0  0  0  0  0  0  0  0  0
  -27.6163  -30.4232  -16.7470 C   0  0  0  0  0  0  0  0  0  0  0  0
  -26.2380  -30.5602  -16.6987 C   0  0  0  0  0  0  0  0  0  0  0  0
  -25.5736  -30.7199  -17.8910 C   0  0  0  0  0  0  0  0  0  0  0  0
  -26.1937  -30.7747  -19.0869 N   0  0  0  0  0  0  0  0  0  0  0  0
  -27.5381  -30.6383  -19.1447 C   0  0  0  0  0  0  0  0  0  0  0  0
  -23.2678  -34.5253  -22.1906 C   0  0  0  0  0  0  0  0  0  0  0  0
  -22.7365  -33.2658  -22.3902 C   0  0  0  0  0  0  0  0  0  0  0  0
  -21.5520  -33.1931  -21.6262 C   0  0  0  0  0  0  0  0  0  0  0  0
  -20.6048  -32.1924  -21.3579 C   0  0  0  0  0  0  0  0  0  0  0  0
  -19.5311  -32.4979  -20.5136 C   0  0  0  0  0  0  0  0  0  0  0  0
  -19.3914  -33.7739  -19.9607 C   0  0  0  0  0  0  0  0  0  0  0  0
  -20.3333  -34.7800  -20.2085 C   0  0  0  0  0  0  0  0  0  0  0  0
  -21.4013  -34.4419  -21.0373 C   0  0  0  0  0  0  0  0  0  0  0  0
  -22.4403  -35.2590  -21.3817 O   0  0  0  0  0  0  0  0  0  0  0  0
  2  1  1  1
  2  3  1  0
  3  4  1  0
  4  5  2  0
  4  6  1  0
  6  7  1  0
  7  8  1  0
  8  9  2  0
  9 10  1  0
 10 11  2  0
 11 12  1  0
 11 13  1  0
 13 14  2  0
 14 15  1  0
 15 16  2  0
 16 17  1  0
 17 18  2  0
  2 19  1  0
 19 20  2  0
 20 21  1  0
 21 22  2  0
 22 23  1  0
 23 24  2  0
 24 25  1  0
 25 26  2  0
 26 27  1  0
 18  8  1  0
 27 19  1  0
 18 13  1  0
 26 21  1  0
M  END
>  <HIPPO Pose ID>  (361) 
130601

>  <fragmenstein_outcome>  (361) 
acceptable

>  <energy_score>  (361) 
-26.803519

>  <distance_score>  (361) 
0.942372

>  <fragmenstein_mode>  (361) 
expansion

>  <HIPPO Compound ID>  (361) 
32093

>  <name>  (361) 
RROIXYWXDOJMCW-CYBMUJFWSA-N

>  <ref_pdb>  (361) 
z1040a

>  <ref_mols>  (361) 
z1040a,3vws-b

>  <csv_name>  (361) 
RdRp_knitwork_green_site_rna_tunnel_pure_split4000_batch001.csv

>  <fragmenstein_runtime>  (361) 
5.206739

>  <tags>  (361) 
['Fragmenstein placed']

>  <original ID>  (361) 
RROIXYWXDOJMCW-CYBMUJFWSA-N

>  <fragmenstein_error>  (361) 
None

>  <original SMILES>  (361) 
C[C@@H](NC(=O)COc1ccc(Cl)c2cccnc12)c1cc2ccccc2o1

>  <inchikey>  (361) 
RROIXYWXDOJMCW-CYBMUJFWSA-N

>  <SLURM_JOB_NAME>  (361) 
BulkDock.place:Flavi_NS5_RdRp:RdRp_knitwork_green_site_rna_tunnel_pure_split4000_batch001

>  <scratch_subdir>  (361) 
/opt/xchem-fragalysis-2/maxwin/BulkDock/SCRATCH/217072/C32093-P208

>  <alias>  (361) 
None

>  <SLURM_JOB_ID>  (361) 
217072

>  <exports>  (361) 
['/opt/xchem-fragalysis-2/maxwin/BulkDock/OUTPUTS/RdRp_knitwork_green_site_rna_tunnel_pure_split4000_batch001_217072.sdf']

$$$$
130638
     RDKit          3D

 18 18  0  0  0  0  0  0  0  0999 V2000
  -29.9064  -31.2256  -15.0486 C   0  0  0  0  0  0  0  0  0  0  0  0
  -29.5259  -30.8642  -16.3776 O   0  0  0  0  0  0  0  0  0  0  0  0
  -28.2347  -30.4556  -16.4987 C   0  0  0  0  0  0  0  0  0  0  0  0
  -27.4706  -30.2957  -15.5539 O   0  0  0  0  0  0  0  0  0  0  0  0
  -27.8562  -30.3350  -17.8843 C   0  0  0  0  0  0  0  0  0  0  0  0
  -26.5614  -30.2364  -18.3693 C   0  0  0  0  0  0  0  0  0  0  0  0
  -26.6551  -30.4365  -19.7565 C   0  0  0  0  0  0  0  0  0  0  0  0
  -25.5999  -30.7519  -20.5560 N   0  0  0  0  0  0  0  0  0  0  0  0
  -25.5543  -31.1069  -22.0700 C   0  0  0  0  0  0  0  0  0  0  0  0
  -26.3841  -31.1056  -22.8525 O   0  0  0  0  0  0  0  0  0  0  0  0
  -24.0724  -31.5612  -22.1793 N   0  0  0  0  0  0  0  0  0  0  0  0
  -23.3690  -32.1909  -23.2648 C   0  0  0  0  0  0  0  0  0  0  0  0
  -21.8470  -32.0595  -23.1740 C   0  0  2  0  0  0  0  0  0  0  0  0
  -21.1637  -33.1605  -23.9716 C   0  0  0  0  0  0  0  0  0  0  0  0
  -21.4103  -32.1634  -21.8140 O   0  0  0  0  0  0  0  0  0  0  0  0
  -27.9227  -30.4194  -20.1557 N   0  0  0  0  0  0  0  0  0  0  0  0
  -28.6376  -30.3819  -19.0154 N   0  0  0  0  0  0  0  0  0  0  0  0
  -30.0696  -30.5177  -19.1157 C   0  0  0  0  0  0  0  0  0  0  0  0
  1  2  1  0
  2  3  1  0
  3  4  2  0
  3  5  1  0
  5  6  2  0
  6  7  1  0
  7  8  1  0
  8  9  1  0
  9 10  2  0
  9 11  1  0
 11 12  1  0
 12 13  1  0
 13 14  1  6
 13 15  1  0
  7 16  2  0
 16 17  1  0
 17 18  1  0
 17  5  1  0
M  END
>  <HIPPO Pose ID>  (362) 
130638

>  <fragmenstein_outcome>  (362) 
acceptable

>  <energy_score>  (362) 
-30.115654

>  <distance_score>  (362) 
0.933309

>  <fragmenstein_mode>  (362) 
expansion

>  <HIPPO Compound ID>  (362) 
55262

>  <name>  (362) 
WVGFLLFSIMGYJN-LURJTMIESA-N

>  <ref_pdb>  (362) 
z0653a

>  <ref_mols>  (362) 
z0211a,z0653a

>  <csv_name>  (362) 
RdRp_knitwork_green_site_rna_tunnel_pure_split4000_batch006.csv

>  <fragmenstein_runtime>  (362) 
4.684665

>  <tags>  (362) 
['Fragmenstein placed']

>  <original ID>  (362) 
WVGFLLFSIMGYJN-LURJTMIESA-N

>  <fragmenstein_error>  (362) 
None

>  <original SMILES>  (362) 
COC(=O)c1cc(NC(=O)NC[C@H](C)O)nn1C

>  <inchikey>  (362) 
WVGFLLFSIMGYJN-LURJTMIESA-N

>  <SLURM_JOB_NAME>  (362) 
BulkDock.place:Flavi_NS5_RdRp:RdRp_knitwork_green_site_rna_tunnel_pure_split4000_batch006

>  <scratch_subdir>  (362) 
/opt/xchem-fragalysis-2/maxwin/BulkDock/SCRATCH/217077/C55262-P153

>  <alias>  (362) 
None

>  <SLURM_JOB_ID>  (362) 
217077

>  <exports>  (362) 
['/opt/xchem-fragalysis-2/maxwin/BulkDock/OUTPUTS/RdRp_knitwork_green_site_rna_tunnel_pure_split4000_batch006_217077.sdf']

$$$$
130715
     RDKit          3D

 19 20  0  0  0  0  0  0  0  0999 V2000
  -21.0522  -33.0241  -23.8094 C   0  0  0  0  0  0  0  0  0  0  0  0
  -21.9338  -32.5345  -22.6712 C   0  0  1  0  0  0  0  0  0  0  0  0
  -21.1818  -31.6196  -21.8797 O   0  0  0  0  0  0  0  0  0  0  0  0
  -23.2081  -31.8899  -23.2021 C   0  0  0  0  0  0  0  0  0  0  0  0
  -24.1279  -31.4907  -22.1703 N   0  0  0  0  0  0  0  0  0  0  0  0
  -25.5499  -30.8767  -22.2740 C   0  0  0  0  0  0  0  0  0  0  0  0
  -26.2027  -30.6794  -23.1892 O   0  0  0  0  0  0  0  0  0  0  0  0
  -25.8665  -30.7039  -20.7511 N   0  0  0  0  0  0  0  0  0  0  0  0
  -27.0531  -30.3536  -20.1118 C   0  0  0  0  0  0  0  0  0  0  0  0
  -28.1154  -29.9008  -20.8934 C   0  0  0  0  0  0  0  0  0  0  0  0
  -29.3957  -29.8245  -20.3681 C   0  0  0  0  0  0  0  0  0  0  0  0
  -29.6166  -30.1766  -19.0464 C   0  0  0  0  0  0  0  0  0  0  0  0
  -28.5429  -30.5275  -18.2179 C   0  0  0  0  0  0  0  0  0  0  0  0
  -28.8398  -30.8741  -16.8740 N   0  0  0  0  0  0  0  0  0  0  0  0
  -27.9693  -31.2134  -15.8630 C   0  0  0  0  0  0  0  0  0  0  0  0
  -28.7261  -31.5656  -14.7716 C   0  0  0  0  0  0  0  0  0  0  0  0
  -30.0495  -31.3882  -15.1945 C   0  0  0  0  0  0  0  0  0  0  0  0
  -30.1265  -30.9326  -16.4441 N   0  0  0  0  0  0  0  0  0  0  0  0
  -27.2410  -30.5988  -18.7482 C   0  0  0  0  0  0  0  0  0  0  0  0
  2  1  1  6
  2  3  1  0
  2  4  1  0
  4  5  1  0
  5  6  1  0
  6  7  2  0
  6  8  1  0
  8  9  1  0
  9 10  2  0
 10 11  1  0
 11 12  2  0
 12 13  1  0
 13 14  1  0
 14 15  1  0
 15 16  2  0
 16 17  1  0
 17 18  2  0
 13 19  2  0
 19  9  1  0
 18 14  1  0
M  END
>  <HIPPO Pose ID>  (363) 
130715

>  <fragmenstein_outcome>  (363) 
acceptable

>  <energy_score>  (363) 
-46.042673

>  <distance_score>  (363) 
0.787615

>  <fragmenstein_mode>  (363) 
expansion

>  <HIPPO Compound ID>  (363) 
55598

>  <name>  (363) 
QLFFONPVDDKJCE-SNVBAGLBSA-N

>  <ref_pdb>  (363) 
z0653a

>  <ref_mols>  (363) 
z0211a,z0653a

>  <csv_name>  (363) 
RdRp_knitwork_green_site_rna_tunnel_pure_split4000_batch006.csv

>  <fragmenstein_runtime>  (363) 
4.003887

>  <tags>  (363) 
['Fragmenstein placed']

>  <original ID>  (363) 
QLFFONPVDDKJCE-SNVBAGLBSA-N

>  <fragmenstein_error>  (363) 
None

>  <original SMILES>  (363) 
C[C@@H](O)CNC(=O)Nc1cccc(-n2cccn2)c1

>  <inchikey>  (363) 
QLFFONPVDDKJCE-SNVBAGLBSA-N

>  <SLURM_JOB_NAME>  (363) 
BulkDock.place:Flavi_NS5_RdRp:RdRp_knitwork_green_site_rna_tunnel_pure_split4000_batch006

>  <scratch_subdir>  (363) 
/opt/xchem-fragalysis-2/maxwin/BulkDock/SCRATCH/217077/C55598-P153

>  <alias>  (363) 
None

>  <SLURM_JOB_ID>  (363) 
217077

>  <exports>  (363) 
['/opt/xchem-fragalysis-2/maxwin/BulkDock/OUTPUTS/RdRp_knitwork_green_site_rna_tunnel_pure_split4000_batch006_217077.sdf']

$$$$
130758
     RDKit          3D

 23 24  0  0  0  0  0  0  0  0999 V2000
  -21.2083  -33.1913  -23.9666 C   0  0  0  0  0  0  0  0  0  0  0  0
  -22.2287  -32.8293  -22.8976 C   0  0  1  0  0  0  0  0  0  0  0  0
  -21.5549  -32.3300  -21.7422 O   0  0  0  0  0  0  0  0  0  0  0  0
  -23.2122  -31.7780  -23.4117 C   0  0  0  0  0  0  0  0  0  0  0  0
  -24.1174  -31.3356  -22.3850 N   0  0  0  0  0  0  0  0  0  0  0  0
  -25.5746  -30.8064  -22.4883 C   0  0  0  0  0  0  0  0  0  0  0  0
  -26.2671  -30.7254  -23.3913 O   0  0  0  0  0  0  0  0  0  0  0  0
  -25.8469  -30.5161  -20.9830 N   0  0  0  0  0  0  0  0  0  0  0  0
  -27.0049  -30.1778  -20.3437 C   0  0  0  0  0  0  0  0  0  0  0  0
  -28.2484  -29.8696  -20.9014 C   0  0  0  0  0  0  0  0  0  0  0  0
  -29.2297  -29.9255  -20.0008 N   0  0  0  0  0  0  0  0  0  0  0  0
  -28.5935  -30.1380  -18.8228 N   0  0  0  0  0  0  0  0  0  0  0  0
  -29.3217  -30.4839  -17.6605 C   0  0  0  0  0  0  0  0  0  0  0  0
  -28.9515  -29.9839  -16.4088 C   0  0  0  0  0  0  0  0  0  0  0  0
  -29.5306  -30.5020  -15.2538 C   0  0  0  0  0  0  0  0  0  0  0  0
  -30.5010  -31.4921  -15.3474 C   0  0  0  0  0  0  0  0  0  0  0  0
  -30.8966  -31.9607  -16.5982 C   0  0  0  0  0  0  0  0  0  0  0  0
  -30.3249  -31.4472  -17.7623 C   0  0  0  0  0  0  0  0  0  0  0  0
  -27.2277  -30.2104  -18.9894 C   0  0  0  0  0  0  0  0  0  0  0  0
  -26.3228  -30.5091  -17.8956 C   0  0  0  0  0  0  0  0  0  0  0  0
  -25.0632  -30.7603  -18.3464 F   0  0  0  0  0  0  0  0  0  0  0  0
  -26.1999  -29.4800  -17.0262 F   0  0  0  0  0  0  0  0  0  0  0  0
  -26.6722  -31.6064  -17.1796 F   0  0  0  0  0  0  0  0  0  0  0  0
  2  1  1  6
  2  3  1  0
  2  4  1  0
  4  5  1  0
  5  6  1  0
  6  7  2  0
  6  8  1  0
  8  9  1  0
  9 10  1  0
 10 11  2  0
 11 12  1  0
 12 13  1  0
 13 14  2  0
 14 15  1  0
 15 16  2  0
 16 17  1  0
 17 18  2  0
 12 19  1  0
 19 20  1  0
 20 21  1  0
 20 22  1  0
 20 23  1  0
 19  9  2  0
 18 13  1  0
M  END
>  <HIPPO Pose ID>  (364) 
130758

>  <fragmenstein_outcome>  (364) 
acceptable

>  <energy_score>  (364) 
-35.593099

>  <distance_score>  (364) 
0.989075

>  <fragmenstein_mode>  (364) 
expansion

>  <HIPPO Compound ID>  (364) 
55792

>  <name>  (364) 
IAWBKAQAUJXDFJ-SECBINFHSA-N

>  <ref_pdb>  (364) 
z0653a

>  <ref_mols>  (364) 
z0211a,z0653a

>  <csv_name>  (364) 
RdRp_knitwork_green_site_rna_tunnel_pure_split4000_batch006.csv

>  <fragmenstein_runtime>  (364) 
4.586708

>  <tags>  (364) 
['Fragmenstein placed']

>  <original ID>  (364) 
IAWBKAQAUJXDFJ-SECBINFHSA-N

>  <fragmenstein_error>  (364) 
None

>  <original SMILES>  (364) 
C[C@@H](O)CNC(=O)Nc1cnn(-c2ccccc2)c1C(F)(F)F

>  <inchikey>  (364) 
IAWBKAQAUJXDFJ-SECBINFHSA-N

>  <SLURM_JOB_NAME>  (364) 
BulkDock.place:Flavi_NS5_RdRp:RdRp_knitwork_green_site_rna_tunnel_pure_split4000_batch006

>  <scratch_subdir>  (364) 
/opt/xchem-fragalysis-2/maxwin/BulkDock/SCRATCH/217077/C55792-P153

>  <alias>  (364) 
None

>  <SLURM_JOB_ID>  (364) 
217077

>  <exports>  (364) 
['/opt/xchem-fragalysis-2/maxwin/BulkDock/OUTPUTS/RdRp_knitwork_green_site_rna_tunnel_pure_split4000_batch006_217077.sdf']

$$$$
130975
     RDKit          3D

 17 18  0  0  0  0  0  0  0  0999 V2000
  -21.0567  -33.0423  -23.8377 C   0  0  0  0  0  0  0  0  0  0  0  0
  -21.8842  -32.5173  -22.6758 C   0  0  1  0  0  0  0  0  0  0  0  0
  -21.1173  -31.5405  -21.9748 O   0  0  0  0  0  0  0  0  0  0  0  0
  -23.2053  -31.9321  -23.1587 C   0  0  0  0  0  0  0  0  0  0  0  0
  -24.0307  -31.4601  -22.0812 N   0  0  0  0  0  0  0  0  0  0  0  0
  -25.5469  -31.1218  -22.0494 C   0  0  0  0  0  0  0  0  0  0  0  0
  -26.3462  -31.2465  -22.8530 O   0  0  0  0  0  0  0  0  0  0  0  0
  -25.6741  -30.6594  -20.5671 N   0  0  0  0  0  0  0  0  0  0  0  0
  -26.7804  -30.3722  -19.8246 C   0  0  0  0  0  0  0  0  0  0  0  0
  -26.8108  -30.1143  -18.4345 C   0  0  0  0  0  0  0  0  0  0  0  0
  -28.1485  -30.0826  -18.1175 C   0  0  0  0  0  0  0  0  0  0  0  0
  -28.7810  -29.9467  -16.7171 C   0  0  0  0  0  0  0  0  0  0  0  0
  -28.3931  -30.8922  -15.6166 C   0  0  0  0  0  0  0  0  0  0  0  0
  -29.7355  -31.0257  -16.2702 C   0  0  0  0  0  0  0  0  0  0  0  0
  -28.8208  -30.2419  -19.2926 N   0  0  0  0  0  0  0  0  0  0  0  0
  -30.2364  -30.4233  -19.4639 C   0  0  0  0  0  0  0  0  0  0  0  0
  -28.0071  -30.3694  -20.3467 N   0  0  0  0  0  0  0  0  0  0  0  0
  2  1  1  6
  2  3  1  0
  2  4  1  0
  4  5  1  0
  5  6  1  0
  6  7  2  0
  6  8  1  0
  8  9  1  0
  9 10  1  0
 10 11  2  0
 11 12  1  0
 12 13  1  0
 13 14  1  0
 11 15  1  0
 15 16  1  0
 15 17  1  0
 17  9  2  0
 14 12  1  0
M  END
>  <HIPPO Pose ID>  (365) 
130975

>  <fragmenstein_outcome>  (365) 
acceptable

>  <energy_score>  (365) 
-16.624212

>  <distance_score>  (365) 
0.926145

>  <fragmenstein_mode>  (365) 
expansion

>  <HIPPO Compound ID>  (365) 
56548

>  <name>  (365) 
GLKYHQBKOTZYGD-SSDOTTSWSA-N

>  <ref_pdb>  (365) 
z0653a

>  <ref_mols>  (365) 
z0211a,z0653a

>  <csv_name>  (365) 
RdRp_knitwork_green_site_rna_tunnel_pure_split4000_batch006.csv

>  <fragmenstein_runtime>  (365) 
3.618871

>  <tags>  (365) 
['Fragmenstein placed']

>  <original ID>  (365) 
GLKYHQBKOTZYGD-SSDOTTSWSA-N

>  <fragmenstein_error>  (365) 
None

>  <original SMILES>  (365) 
C[C@@H](O)CNC(=O)Nc1cc(C2CC2)n(C)n1

>  <inchikey>  (365) 
GLKYHQBKOTZYGD-SSDOTTSWSA-N

>  <SLURM_JOB_NAME>  (365) 
BulkDock.place:Flavi_NS5_RdRp:RdRp_knitwork_green_site_rna_tunnel_pure_split4000_batch006

>  <scratch_subdir>  (365) 
/opt/xchem-fragalysis-2/maxwin/BulkDock/SCRATCH/217077/C56548-P153

>  <alias>  (365) 
None

>  <SLURM_JOB_ID>  (365) 
217077

>  <exports>  (365) 
['/opt/xchem-fragalysis-2/maxwin/BulkDock/OUTPUTS/RdRp_knitwork_green_site_rna_tunnel_pure_split4000_batch006_217077.sdf']

$$$$
131234
     RDKit          3D

 26 29  0  0  0  0  0  0  0  0999 V2000
  -27.0567  -34.0589  -19.5127 O   0  0  0  0  0  0  0  0  0  0  0  0
  -27.5172  -33.1817  -20.5650 S   0  0  0  0  0  0  0  0  0  0  0  0
  -28.4733  -33.6611  -21.5426 O   0  0  0  0  0  0  0  0  0  0  0  0
  -26.1433  -32.6726  -21.3998 N   0  0  0  0  0  0  0  0  0  0  0  0
  -25.9407  -33.1915  -22.7663 C   0  0  0  0  0  0  0  0  0  0  0  0
  -25.5985  -34.6835  -22.8881 C   0  0  0  0  0  0  0  0  0  0  0  0
  -24.5869  -35.3382  -21.9363 C   0  0  0  0  0  0  0  0  0  0  0  0
  -23.2630  -34.6739  -21.7987 C   0  0  0  0  0  0  0  0  0  0  0  0
  -22.7081  -33.4876  -22.2321 C   0  0  0  0  0  0  0  0  0  0  0  0
  -21.4816  -33.3292  -21.5435 C   0  0  0  0  0  0  0  0  0  0  0  0
  -20.5255  -32.3066  -21.4382 C   0  0  0  0  0  0  0  0  0  0  0  0
  -19.4200  -32.5156  -20.6042 C   0  0  0  0  0  0  0  0  0  0  0  0
  -19.2469  -33.7236  -19.9229 C   0  0  0  0  0  0  0  0  0  0  0  0
  -20.1918  -34.7509  -20.0178 C   0  0  0  0  0  0  0  0  0  0  0  0
  -21.3009  -34.4976  -20.8197 C   0  0  0  0  0  0  0  0  0  0  0  0
  -22.3676  -35.3257  -20.9909 O   0  0  0  0  0  0  0  0  0  0  0  0
  -28.1859  -31.6907  -19.8440 C   0  0  0  0  0  0  0  0  0  0  0  0
  -29.4310  -31.2287  -20.2875 C   0  0  0  0  0  0  0  0  0  0  0  0
  -30.2309  -30.4330  -19.4832 C   0  0  0  0  0  0  0  0  0  0  0  0
  -29.7826  -30.1248  -18.2106 C   0  0  0  0  0  0  0  0  0  0  0  0
  -28.4946  -30.5040  -17.8047 C   0  0  0  0  0  0  0  0  0  0  0  0
  -28.0359  -30.1869  -16.5261 C   0  0  0  0  0  0  0  0  0  0  0  0
  -26.7390  -30.5167  -16.1559 C   0  0  0  0  0  0  0  0  0  0  0  0
  -25.9361  -31.1368  -17.0874 C   0  0  0  0  0  0  0  0  0  0  0  0
  -26.3607  -31.4967  -18.3133 N   0  0  0  0  0  0  0  0  0  0  0  0
  -27.6393  -31.2381  -18.6568 C   0  0  0  0  0  0  0  0  0  0  0  0
  1  2  2  0
  2  3  2  0
  2  4  1  0
  4  5  1  0
  5  6  1  0
  6  7  1  0
  7  8  1  0
  8  9  2  0
  9 10  1  0
 10 11  2  0
 11 12  1  0
 12 13  2  0
 13 14  1  0
 14 15  2  0
 15 16  1  0
  2 17  1  0
 17 18  2  0
 18 19  1  0
 19 20  2  0
 20 21  1  0
 21 22  2  0
 22 23  1  0
 23 24  2  0
 24 25  1  0
 25 26  2  0
 16  8  1  0
 26 17  1  0
 15 10  1  0
 26 21  1  0
M  END
>  <HIPPO Pose ID>  (366) 
131234

>  <fragmenstein_outcome>  (366) 
acceptable

>  <energy_score>  (366) 
-40.278336

>  <distance_score>  (366) 
0.998959

>  <fragmenstein_mode>  (366) 
expansion

>  <HIPPO Compound ID>  (366) 
34614

>  <name>  (366) 
INAPTBOZNFYQBG-UHFFFAOYSA-N

>  <ref_pdb>  (366) 
z1040a

>  <ref_mols>  (366) 
z1040a,3vws-b

>  <csv_name>  (366) 
RdRp_knitwork_green_site_rna_tunnel_pure_split4000_batch001.csv

>  <fragmenstein_runtime>  (366) 
3.056269

>  <tags>  (366) 
['Fragmenstein placed']

>  <original ID>  (366) 
INAPTBOZNFYQBG-UHFFFAOYSA-N

>  <fragmenstein_error>  (366) 
None

>  <original SMILES>  (366) 
O=S(=O)(NCCCc1cc2ccccc2o1)c1cccc2cccnc12

>  <inchikey>  (366) 
INAPTBOZNFYQBG-UHFFFAOYSA-N

>  <SLURM_JOB_NAME>  (366) 
BulkDock.place:Flavi_NS5_RdRp:RdRp_knitwork_green_site_rna_tunnel_pure_split4000_batch001

>  <scratch_subdir>  (366) 
/opt/xchem-fragalysis-2/maxwin/BulkDock/SCRATCH/217072/C34614-P208

>  <alias>  (366) 
None

>  <SLURM_JOB_ID>  (366) 
217072

>  <exports>  (366) 
['/opt/xchem-fragalysis-2/maxwin/BulkDock/OUTPUTS/RdRp_knitwork_green_site_rna_tunnel_pure_split4000_batch001_217072.sdf']

$$$$
131467
     RDKit          3D

 23 26  0  0  0  0  0  0  0  0999 V2000
  -30.2035  -29.8469  -20.1286 C   0  0  0  0  0  0  0  0  0  0  0  0
  -28.7234  -30.0786  -20.2336 C   0  0  0  0  0  0  0  0  0  0  0  0
  -28.2161  -30.3743  -21.4978 C   0  0  0  0  0  0  0  0  0  0  0  0
  -26.9338  -30.8900  -21.6390 C   0  0  0  0  0  0  0  0  0  0  0  0
  -26.1216  -31.0798  -20.5248 C   0  0  0  0  0  0  0  0  0  0  0  0
  -24.9698  -31.8840  -20.6644 N   0  0  0  0  0  0  0  0  0  0  0  0
  -24.5244  -32.8155  -21.8262 C   0  0  0  0  0  0  0  0  0  0  0  0
  -25.0047  -32.9992  -22.8765 O   0  0  0  0  0  0  0  0  0  0  0  0
  -23.3710  -33.6249  -21.4347 C   0  0  0  0  0  0  0  0  0  0  0  0
  -23.3261  -35.0010  -21.5835 C   0  0  0  0  0  0  0  0  0  0  0  0
  -22.1508  -35.5111  -21.1360 O   0  0  0  0  0  0  0  0  0  0  0  0
  -21.3996  -34.4548  -20.7259 C   0  0  0  0  0  0  0  0  0  0  0  0
  -20.1084  -34.5399  -20.2040 C   0  0  0  0  0  0  0  0  0  0  0  0
  -19.4652  -33.3340  -19.9153 C   0  0  0  0  0  0  0  0  0  0  0  0
  -20.1135  -32.1156  -20.1143 C   0  0  0  0  0  0  0  0  0  0  0  0
  -21.4285  -32.0667  -20.6005 C   0  0  0  0  0  0  0  0  0  0  0  0
  -22.0919  -33.2631  -20.9176 C   0  0  0  0  0  0  0  0  0  0  0  0
  -26.5482  -30.5655  -19.2702 C   0  0  0  0  0  0  0  0  0  0  0  0
  -25.7375  -30.5393  -18.1153 C   0  0  0  0  0  0  0  0  0  0  0  0
  -26.2446  -30.0943  -16.8985 C   0  0  0  0  0  0  0  0  0  0  0  0
  -27.5608  -29.6909  -16.8543 C   0  0  0  0  0  0  0  0  0  0  0  0
  -28.3723  -29.6790  -17.9301 N   0  0  0  0  0  0  0  0  0  0  0  0
  -27.8843  -30.0899  -19.1201 C   0  0  0  0  0  0  0  0  0  0  0  0
  1  2  1  0
  2  3  2  0
  3  4  1  0
  4  5  2  0
  5  6  1  0
  6  7  1  0
  7  8  2  0
  7  9  1  0
  9 10  2  0
 10 11  1  0
 11 12  1  0
 12 13  2  0
 13 14  1  0
 14 15  2  0
 15 16  1  0
 16 17  2  0
  5 18  1  0
 18 19  2  0
 19 20  1  0
 20 21  2  0
 21 22  1  0
 22 23  2  0
 23  2  1  0
 17  9  1  0
 23 18  1  0
 17 12  1  0
M  END
>  <HIPPO Pose ID>  (367) 
131467

>  <fragmenstein_outcome>  (367) 
acceptable

>  <energy_score>  (367) 
-43.227844

>  <distance_score>  (367) 
0.857801

>  <fragmenstein_mode>  (367) 
expansion

>  <HIPPO Compound ID>  (367) 
28098

>  <name>  (367) 
AXERFVXKLSNXGR-UHFFFAOYSA-N

>  <ref_pdb>  (367) 
z0881a

>  <ref_mols>  (367) 
z0881a,3vws-b

>  <csv_name>  (367) 
RdRp_knitwork_green_site_rna_tunnel_pure_split4000_batch004.csv

>  <fragmenstein_runtime>  (367) 
3.719668

>  <tags>  (367) 
['Fragmenstein placed']

>  <original ID>  (367) 
AXERFVXKLSNXGR-UHFFFAOYSA-N

>  <fragmenstein_error>  (367) 
None

>  <original SMILES>  (367) 
Cc1ccc(NC(=O)c2coc3ccccc23)c2cccnc12

>  <inchikey>  (367) 
AXERFVXKLSNXGR-UHFFFAOYSA-N

>  <SLURM_JOB_NAME>  (367) 
BulkDock.place:Flavi_NS5_RdRp:RdRp_knitwork_green_site_rna_tunnel_pure_split4000_batch004

>  <scratch_subdir>  (367) 
/opt/xchem-fragalysis-2/maxwin/BulkDock/SCRATCH/217075/C28098-P173

>  <alias>  (367) 
None

>  <SLURM_JOB_ID>  (367) 
217075

>  <exports>  (367) 
['/opt/xchem-fragalysis-2/maxwin/BulkDock/OUTPUTS/RdRp_knitwork_green_site_rna_tunnel_pure_split4000_batch004_217075.sdf']

$$$$
131584
     RDKit          3D

 23 26  0  0  0  0  0  0  0  0999 V2000
  -23.6209  -31.4722  -20.6253 O   0  0  0  0  0  0  0  0  0  0  0  0
  -24.3450  -31.7229  -21.5107 C   0  0  0  0  0  0  0  0  0  0  0  0
  -23.8797  -32.6306  -22.6684 C   0  0  0  0  0  0  0  0  0  0  0  0
  -22.9893  -33.7134  -22.1135 C   0  0  0  0  0  0  0  0  0  0  0  0
  -23.2801  -35.0549  -21.9503 C   0  0  0  0  0  0  0  0  0  0  0  0
  -22.3013  -35.6883  -21.2499 O   0  0  0  0  0  0  0  0  0  0  0  0
  -21.3674  -34.7496  -20.9339 C   0  0  0  0  0  0  0  0  0  0  0  0
  -20.2301  -34.9590  -20.1526 C   0  0  0  0  0  0  0  0  0  0  0  0
  -19.3769  -33.8629  -19.9763 C   0  0  0  0  0  0  0  0  0  0  0  0
  -19.6681  -32.6251  -20.5507 C   0  0  0  0  0  0  0  0  0  0  0  0
  -20.8226  -32.4470  -21.3224 C   0  0  0  0  0  0  0  0  0  0  0  0
  -21.6989  -33.5329  -21.5131 C   0  0  0  0  0  0  0  0  0  0  0  0
  -25.8515  -31.3627  -21.7187 N   0  0  0  0  0  0  0  0  0  0  0  0
  -26.7540  -30.7301  -20.8690 C   0  0  0  0  0  0  0  0  0  0  0  0
  -28.0749  -30.4540  -21.2003 C   0  0  0  0  0  0  0  0  0  0  0  0
  -28.9640  -30.0155  -20.2053 C   0  0  0  0  0  0  0  0  0  0  0  0
  -28.5545  -29.8488  -18.8854 C   0  0  0  0  0  0  0  0  0  0  0  0
  -29.4366  -29.5553  -17.9164 N   0  0  0  0  0  0  0  0  0  0  0  0
  -28.9797  -29.4804  -16.6448 C   0  0  0  0  0  0  0  0  0  0  0  0
  -27.6582  -29.6434  -16.2782 C   0  0  0  0  0  0  0  0  0  0  0  0
  -26.7425  -29.9077  -17.2785 C   0  0  0  0  0  0  0  0  0  0  0  0
  -27.1938  -30.0425  -18.5926 C   0  0  0  0  0  0  0  0  0  0  0  0
  -26.3102  -30.4561  -19.5812 C   0  0  0  0  0  0  0  0  0  0  0  0
  1  2  2  0
  2  3  1  0
  3  4  1  0
  4  5  2  0
  5  6  1  0
  6  7  1  0
  7  8  2  0
  8  9  1  0
  9 10  2  0
 10 11  1  0
 11 12  2  0
  2 13  1  0
 13 14  1  0
 14 15  2  0
 15 16  1  0
 16 17  2  0
 17 18  1  0
 18 19  2  0
 19 20  1  0
 20 21  2  0
 21 22  1  0
 22 23  2  0
 12  4  1  0
 23 14  1  0
 12  7  1  0
 22 17  1  0
M  END
>  <HIPPO Pose ID>  (368) 
131584

>  <fragmenstein_outcome>  (368) 
acceptable

>  <energy_score>  (368) 
-44.768693

>  <distance_score>  (368) 
0.928781

>  <fragmenstein_mode>  (368) 
expansion

>  <HIPPO Compound ID>  (368) 
29117

>  <name>  (368) 
VVKUZZHAJXDXNV-UHFFFAOYSA-N

>  <ref_pdb>  (368) 
z0881a

>  <ref_mols>  (368) 
z0881a,3vws-b

>  <csv_name>  (368) 
RdRp_knitwork_green_site_rna_tunnel_pure_split4000_batch004.csv

>  <fragmenstein_runtime>  (368) 
4.690363

>  <tags>  (368) 
['Fragmenstein placed']

>  <original ID>  (368) 
VVKUZZHAJXDXNV-UHFFFAOYSA-N

>  <fragmenstein_error>  (368) 
None

>  <original SMILES>  (368) 
O=C(Cc1coc2ccccc12)Nc1ccc2ncccc2c1

>  <inchikey>  (368) 
VVKUZZHAJXDXNV-UHFFFAOYSA-N

>  <SLURM_JOB_NAME>  (368) 
BulkDock.place:Flavi_NS5_RdRp:RdRp_knitwork_green_site_rna_tunnel_pure_split4000_batch004

>  <scratch_subdir>  (368) 
/opt/xchem-fragalysis-2/maxwin/BulkDock/SCRATCH/217075/C29117-P173

>  <alias>  (368) 
None

>  <SLURM_JOB_ID>  (368) 
217075

>  <exports>  (368) 
['/opt/xchem-fragalysis-2/maxwin/BulkDock/OUTPUTS/RdRp_knitwork_green_site_rna_tunnel_pure_split4000_batch004_217075.sdf']

$$$$
131611
     RDKit          3D

 23 26  0  0  0  0  0  0  0  0999 V2000
  -25.6732  -34.0631  -22.3726 O   0  0  0  0  0  0  0  0  0  0  0  0
  -24.6083  -33.4565  -22.3083 C   0  0  0  0  0  0  0  0  0  0  0  0
  -24.4955  -32.0999  -22.8895 C   0  0  0  0  0  0  0  0  0  0  0  0
  -25.3305  -31.0729  -22.6407 C   0  0  0  0  0  0  0  0  0  0  0  0
  -26.2993  -30.8623  -21.5409 C   0  0  0  0  0  0  0  0  0  0  0  0
  -27.5887  -30.3601  -21.7599 C   0  0  0  0  0  0  0  0  0  0  0  0
  -28.4170  -29.9823  -20.6876 C   0  0  0  0  0  0  0  0  0  0  0  0
  -27.9579  -29.9985  -19.3786 C   0  0  0  0  0  0  0  0  0  0  0  0
  -28.7483  -29.5683  -18.3751 N   0  0  0  0  0  0  0  0  0  0  0  0
  -28.2319  -29.5433  -17.1256 C   0  0  0  0  0  0  0  0  0  0  0  0
  -26.9362  -29.9123  -16.8191 C   0  0  0  0  0  0  0  0  0  0  0  0
  -26.1265  -30.3644  -17.8538 C   0  0  0  0  0  0  0  0  0  0  0  0
  -26.6343  -30.4344  -19.1580 C   0  0  0  0  0  0  0  0  0  0  0  0
  -25.8392  -30.9010  -20.2232 C   0  0  0  0  0  0  0  0  0  0  0  0
  -23.3917  -34.0630  -21.7923 C   0  0  0  0  0  0  0  0  0  0  0  0
  -23.2812  -35.4295  -21.5930 C   0  0  0  0  0  0  0  0  0  0  0  0
  -22.0886  -35.7642  -21.0446 O   0  0  0  0  0  0  0  0  0  0  0  0
  -21.4111  -34.6041  -20.8486 C   0  0  0  0  0  0  0  0  0  0  0  0
  -20.1532  -34.5027  -20.2508 C   0  0  0  0  0  0  0  0  0  0  0  0
  -19.5993  -33.2239  -20.1585 C   0  0  0  0  0  0  0  0  0  0  0  0
  -20.2987  -32.1123  -20.6251 C   0  0  0  0  0  0  0  0  0  0  0  0
  -21.5708  -32.2506  -21.2017 C   0  0  0  0  0  0  0  0  0  0  0  0
  -22.1478  -33.5254  -21.3290 C   0  0  0  0  0  0  0  0  0  0  0  0
  1  2  2  0
  2  3  1  0
  3  4  2  3
  4  5  1  0
  5  6  2  0
  6  7  1  0
  7  8  2  0
  8  9  1  0
  9 10  2  0
 10 11  1  0
 11 12  2  0
 12 13  1  0
 13 14  2  0
  2 15  1  0
 15 16  2  0
 16 17  1  0
 17 18  1  0
 18 19  2  0
 19 20  1  0
 20 21  2  0
 21 22  1  0
 22 23  2  0
 14  5  1  0
 23 15  1  0
 13  8  1  0
 23 18  1  0
M  END
>  <HIPPO Pose ID>  (369) 
131611

>  <fragmenstein_outcome>  (369) 
acceptable

>  <energy_score>  (369) 
-160.215495

>  <distance_score>  (369) 
0.818368

>  <fragmenstein_mode>  (369) 
expansion

>  <HIPPO Compound ID>  (369) 
29191

>  <name>  (369) 
FNFIBMOUBIXXER-UHFFFAOYSA-N

>  <ref_pdb>  (369) 
z0881a

>  <ref_mols>  (369) 
z0881a,3vws-b

>  <csv_name>  (369) 
RdRp_knitwork_green_site_rna_tunnel_pure_split4000_batch004.csv

>  <fragmenstein_runtime>  (369) 
2.510043

>  <tags>  (369) 
['Fragmenstein placed']

>  <original ID>  (369) 
FNFIBMOUBIXXER-UHFFFAOYSA-N

>  <fragmenstein_error>  (369) 
None

>  <original SMILES>  (369) 
O=C(C=Cc1ccc2ncccc2c1)c1coc2ccccc12

>  <inchikey>  (369) 
FNFIBMOUBIXXER-UHFFFAOYSA-N

>  <SLURM_JOB_NAME>  (369) 
BulkDock.place:Flavi_NS5_RdRp:RdRp_knitwork_green_site_rna_tunnel_pure_split4000_batch004

>  <scratch_subdir>  (369) 
/opt/xchem-fragalysis-2/maxwin/BulkDock/SCRATCH/217075/C29191-P173

>  <alias>  (369) 
None

>  <SLURM_JOB_ID>  (369) 
217075

>  <exports>  (369) 
['/opt/xchem-fragalysis-2/maxwin/BulkDock/OUTPUTS/RdRp_knitwork_green_site_rna_tunnel_pure_split4000_batch004_217075.sdf']

$$$$
131675
     RDKit          3D

 23 26  0  0  0  0  0  0  0  0999 V2000
  -30.1294  -29.7411  -20.7782 C   0  0  0  0  0  0  0  0  0  0  0  0
  -28.6847  -30.0227  -20.4767 C   0  0  0  0  0  0  0  0  0  0  0  0
  -27.8522  -30.3888  -21.5550 C   0  0  0  0  0  0  0  0  0  0  0  0
  -26.5327  -30.8147  -21.3612 C   0  0  0  0  0  0  0  0  0  0  0  0
  -25.7058  -31.3665  -22.5193 C   0  0  0  0  0  0  0  0  0  0  0  0
  -24.4483  -31.9715  -22.0876 N   0  0  0  0  0  0  0  0  0  0  0  0
  -23.9033  -32.9743  -22.9887 C   0  0  0  0  0  0  0  0  0  0  0  0
  -22.9970  -33.8504  -22.1843 C   0  0  0  0  0  0  0  0  0  0  0  0
  -23.2090  -35.1786  -21.8581 C   0  0  0  0  0  0  0  0  0  0  0  0
  -22.2116  -35.6639  -21.0756 O   0  0  0  0  0  0  0  0  0  0  0  0
  -21.3491  -34.6363  -20.8557 C   0  0  0  0  0  0  0  0  0  0  0  0
  -20.2032  -34.6976  -20.0627 C   0  0  0  0  0  0  0  0  0  0  0  0
  -19.4308  -33.5341  -19.9846 C   0  0  0  0  0  0  0  0  0  0  0  0
  -19.8029  -32.3785  -20.6727 C   0  0  0  0  0  0  0  0  0  0  0  0
  -20.9563  -32.3545  -21.4682 C   0  0  0  0  0  0  0  0  0  0  0  0
  -21.7587  -33.5062  -21.5526 C   0  0  0  0  0  0  0  0  0  0  0  0
  -26.0270  -30.7271  -20.0628 C   0  0  0  0  0  0  0  0  0  0  0  0
  -26.8135  -30.2689  -18.9945 C   0  0  0  0  0  0  0  0  0  0  0  0
  -26.2626  -30.1722  -17.7109 C   0  0  0  0  0  0  0  0  0  0  0  0
  -27.0608  -29.7885  -16.6446 C   0  0  0  0  0  0  0  0  0  0  0  0
  -28.3851  -29.5015  -16.9042 C   0  0  0  0  0  0  0  0  0  0  0  0
  -28.9430  -29.5570  -18.1341 N   0  0  0  0  0  0  0  0  0  0  0  0
  -28.1729  -29.9361  -19.1786 C   0  0  0  0  0  0  0  0  0  0  0  0
  1  2  1  0
  2  3  2  0
  3  4  1  0
  4  5  1  0
  5  6  1  0
  6  7  1  0
  7  8  1  0
  8  9  2  0
  9 10  1  0
 10 11  1  0
 11 12  2  0
 12 13  1  0
 13 14  2  0
 14 15  1  0
 15 16  2  0
  4 17  2  0
 17 18  1  0
 18 19  2  0
 19 20  1  0
 20 21  2  0
 21 22  1  0
 22 23  2  0
 23  2  1  0
 16  8  1  0
 23 18  1  0
 16 11  1  0
M  END
>  <HIPPO Pose ID>  (370) 
131675

>  <fragmenstein_outcome>  (370) 
acceptable

>  <energy_score>  (370) 
-35.163475

>  <distance_score>  (370) 
0.710981

>  <fragmenstein_mode>  (370) 
expansion

>  <HIPPO Compound ID>  (370) 
29399

>  <name>  (370) 
BFZGFLLCJMAUAG-UHFFFAOYSA-N

>  <ref_pdb>  (370) 
z0881a

>  <ref_mols>  (370) 
z0881a,3vws-b

>  <csv_name>  (370) 
RdRp_knitwork_green_site_rna_tunnel_pure_split4000_batch004.csv

>  <fragmenstein_runtime>  (370) 
4.241804

>  <tags>  (370) 
['Fragmenstein placed']

>  <original ID>  (370) 
BFZGFLLCJMAUAG-UHFFFAOYSA-N

>  <fragmenstein_error>  (370) 
None

>  <original SMILES>  (370) 
Cc1cc(CNCc2coc3ccccc23)cc2cccnc12

>  <inchikey>  (370) 
BFZGFLLCJMAUAG-UHFFFAOYSA-N

>  <SLURM_JOB_NAME>  (370) 
BulkDock.place:Flavi_NS5_RdRp:RdRp_knitwork_green_site_rna_tunnel_pure_split4000_batch004

>  <scratch_subdir>  (370) 
/opt/xchem-fragalysis-2/maxwin/BulkDock/SCRATCH/217075/C29399-P173

>  <alias>  (370) 
None

>  <SLURM_JOB_ID>  (370) 
217075

>  <exports>  (370) 
['/opt/xchem-fragalysis-2/maxwin/BulkDock/OUTPUTS/RdRp_knitwork_green_site_rna_tunnel_pure_split4000_batch004_217075.sdf']

$$$$
132031
     RDKit          3D

 22 24  0  0  0  0  0  0  0  0999 V2000
  -24.6333  -34.0854  -23.9351 O   0  0  0  0  0  0  0  0  0  0  0  0
  -24.1139  -33.3865  -23.1609 C   0  0  0  0  0  0  0  0  0  0  0  0
  -24.2589  -31.8724  -22.9300 N   0  0  0  0  0  0  0  0  0  0  0  0
  -25.1452  -30.9118  -23.5408 C   0  0  0  0  0  0  0  0  0  0  0  0
  -26.6148  -31.1501  -23.2016 C   0  0  0  0  0  0  0  0  0  0  0  0
  -27.1081  -30.3692  -21.9940 C   0  0  0  0  0  0  0  0  0  0  0  0
  -28.6243  -30.5278  -21.6903 C   0  0  0  0  0  0  0  0  0  0  0  0
  -28.9124  -29.9106  -20.4060 N   0  0  0  0  0  0  0  0  0  0  0  0
  -29.2881  -30.5408  -19.2477 C   0  0  0  0  0  0  0  0  0  0  0  0
  -28.8508  -29.7179  -18.2447 C   0  0  0  0  0  0  0  0  0  0  0  0
  -28.8633  -29.9226  -16.3980 Br  0  0  0  0  0  0  0  0  0  0  0  0
  -28.3270  -28.5991  -18.8816 C   0  0  0  0  0  0  0  0  0  0  0  0
  -28.4401  -28.6682  -20.2045 N   0  0  0  0  0  0  0  0  0  0  0  0
  -23.1172  -33.9656  -22.2523 C   0  0  0  0  0  0  0  0  0  0  0  0
  -23.1647  -35.2886  -21.8454 C   0  0  0  0  0  0  0  0  0  0  0  0
  -22.1332  -35.5973  -21.0240 O   0  0  0  0  0  0  0  0  0  0  0  0
  -21.3886  -34.4695  -20.8900 C   0  0  0  0  0  0  0  0  0  0  0  0
  -20.2322  -34.3659  -20.1173 C   0  0  0  0  0  0  0  0  0  0  0  0
  -19.5732  -33.1348  -20.1353 C   0  0  0  0  0  0  0  0  0  0  0  0
  -20.0577  -32.0753  -20.9028 C   0  0  0  0  0  0  0  0  0  0  0  0
  -21.2193  -32.2138  -21.6782 C   0  0  0  0  0  0  0  0  0  0  0  0
  -21.9261  -33.4344  -21.6524 C   0  0  0  0  0  0  0  0  0  0  0  0
  1  2  2  0
  2  3  1  0
  3  4  1  0
  4  5  1  0
  5  6  1  0
  6  7  1  0
  7  8  1  0
  8  9  1  0
  9 10  2  0
 10 11  1  0
 10 12  1  0
 12 13  2  0
  2 14  1  0
 14 15  2  0
 15 16  1  0
 16 17  1  0
 17 18  2  0
 18 19  1  0
 19 20  2  0
 20 21  1  0
 21 22  2  0
 13  8  1  0
 22 14  1  0
 22 17  1  0
M  END
>  <HIPPO Pose ID>  (371) 
132031

>  <fragmenstein_outcome>  (371) 
acceptable

>  <energy_score>  (371) 
-32.106976

>  <distance_score>  (371) 
0.902605

>  <fragmenstein_mode>  (371) 
expansion

>  <HIPPO Compound ID>  (371) 
27041

>  <name>  (371) 
WERIZSWJHZZERF-UHFFFAOYSA-N

>  <ref_pdb>  (371) 
z0936a

>  <ref_mols>  (371) 
z0936a,3vws-b

>  <csv_name>  (371) 
RdRp_knitwork_green_site_rna_tunnel_pure_split4000_batch001.csv

>  <fragmenstein_runtime>  (371) 
24.517151

>  <tags>  (371) 
['Fragmenstein placed']

>  <original ID>  (371) 
WERIZSWJHZZERF-UHFFFAOYSA-N

>  <fragmenstein_error>  (371) 
None

>  <original SMILES>  (371) 
O=C(NCCCCn1cc(Br)cn1)c1coc2ccccc12

>  <inchikey>  (371) 
WERIZSWJHZZERF-UHFFFAOYSA-N

>  <SLURM_JOB_NAME>  (371) 
BulkDock.place:Flavi_NS5_RdRp:RdRp_knitwork_green_site_rna_tunnel_pure_split4000_batch001

>  <scratch_subdir>  (371) 
/opt/xchem-fragalysis-2/maxwin/BulkDock/SCRATCH/217072/C27041-P196

>  <alias>  (371) 
None

>  <SLURM_JOB_ID>  (371) 
217072

>  <exports>  (371) 
['/opt/xchem-fragalysis-2/maxwin/BulkDock/OUTPUTS/RdRp_knitwork_green_site_rna_tunnel_pure_split4000_batch001_217072.sdf']

$$$$
132062
     RDKit          3D

 17 18  0  0  0  0  0  0  0  0999 V2000
  -20.9776  -32.8281  -24.0426 C   0  0  0  0  0  0  0  0  0  0  0  0
  -21.9727  -32.5955  -22.9236 C   0  0  1  0  0  0  0  0  0  0  0  0
  -21.4111  -31.6897  -21.9699 O   0  0  0  0  0  0  0  0  0  0  0  0
  -23.3043  -32.0631  -23.4509 C   0  0  0  0  0  0  0  0  0  0  0  0
  -24.1551  -31.6374  -22.3718 N   0  0  0  0  0  0  0  0  0  0  0  0
  -25.5238  -30.9166  -22.3993 C   0  0  0  0  0  0  0  0  0  0  0  0
  -26.1190  -30.4996  -23.2772 O   0  0  0  0  0  0  0  0  0  0  0  0
  -25.8165  -30.8645  -20.8692 N   0  0  0  0  0  0  0  0  0  0  0  0
  -26.9205  -30.3790  -20.1816 C   0  0  0  0  0  0  0  0  0  0  0  0
  -28.1167  -30.0791  -20.8373 C   0  0  0  0  0  0  0  0  0  0  0  0
  -29.2582  -29.7264  -20.1232 C   0  0  0  0  0  0  0  0  0  0  0  0
  -29.2064  -29.5819  -18.7349 C   0  0  0  0  0  0  0  0  0  0  0  0
  -27.9750  -29.7241  -18.0719 C   0  0  0  0  0  0  0  0  0  0  0  0
  -27.5493  -29.5310  -16.7300 C   0  0  0  0  0  0  0  0  0  0  0  0
  -26.2136  -29.8508  -16.6595 C   0  0  0  0  0  0  0  0  0  0  0  0
  -25.8165  -30.2544  -17.9059 N   0  0  0  0  0  0  0  0  0  0  0  0
  -26.8653  -30.1623  -18.7972 C   0  0  0  0  0  0  0  0  0  0  0  0
  2  1  1  6
  2  3  1  0
  2  4  1  0
  4  5  1  0
  5  6  1  0
  6  7  2  0
  6  8  1  0
  8  9  1  0
  9 10  2  0
 10 11  1  0
 11 12  2  0
 12 13  1  0
 13 14  1  0
 14 15  2  0
 15 16  1  0
 16 17  1  0
 17  9  1  0
 17 13  2  0
M  END
>  <HIPPO Pose ID>  (372) 
132062

>  <fragmenstein_outcome>  (372) 
acceptable

>  <energy_score>  (372) 
-1.256086

>  <distance_score>  (372) 
0.700033

>  <fragmenstein_mode>  (372) 
expansion

>  <HIPPO Compound ID>  (372) 
34701

>  <name>  (372) 
XYRDJRCBUAYREB-MRVPVSSYSA-N

>  <ref_pdb>  (372) 
z0041a

>  <ref_mols>  (372) 
z0041a,z0211a

>  <csv_name>  (372) 
RdRp_knitwork_green_site_rna_tunnel_pure_split4000_batch008.csv

>  <fragmenstein_runtime>  (372) 
2.603448

>  <tags>  (372) 
['Fragmenstein placed']

>  <original ID>  (372) 
XYRDJRCBUAYREB-MRVPVSSYSA-N

>  <fragmenstein_error>  (372) 
None

>  <original SMILES>  (372) 
C[C@@H](O)CNC(=O)Nc1cccc2cc[nH]c12

>  <inchikey>  (372) 
XYRDJRCBUAYREB-MRVPVSSYSA-N

>  <SLURM_JOB_NAME>  (372) 
BulkDock.place:Flavi_NS5_RdRp:RdRp_knitwork_green_site_rna_tunnel_pure_split4000_batch008

>  <scratch_subdir>  (372) 
/opt/xchem-fragalysis-2/maxwin/BulkDock/SCRATCH/217079/C34701-P82

>  <alias>  (372) 
None

>  <SLURM_JOB_ID>  (372) 
217079

>  <exports>  (372) 
['/opt/xchem-fragalysis-2/maxwin/BulkDock/OUTPUTS/RdRp_knitwork_green_site_rna_tunnel_pure_split4000_batch008_217079.sdf']

$$$$
132071
     RDKit          3D

 17 18  0  0  0  0  0  0  0  0999 V2000
  -21.0306  -32.8852  -23.9488 C   0  0  0  0  0  0  0  0  0  0  0  0
  -22.0193  -32.6980  -22.8144 C   0  0  1  0  0  0  0  0  0  0  0  0
  -21.3767  -32.0096  -21.7379 O   0  0  0  0  0  0  0  0  0  0  0  0
  -23.2307  -31.9048  -23.2911 C   0  0  0  0  0  0  0  0  0  0  0  0
  -24.0793  -31.5243  -22.2007 N   0  0  0  0  0  0  0  0  0  0  0  0
  -25.4979  -30.9124  -22.2033 C   0  0  0  0  0  0  0  0  0  0  0  0
  -26.2054  -30.7012  -23.0680 O   0  0  0  0  0  0  0  0  0  0  0  0
  -25.7038  -30.7393  -20.6745 N   0  0  0  0  0  0  0  0  0  0  0  0
  -26.8307  -30.3703  -19.9571 C   0  0  0  0  0  0  0  0  0  0  0  0
  -28.0796  -30.2557  -20.5793 C   0  0  0  0  0  0  0  0  0  0  0  0
  -29.2302  -29.9909  -19.8441 C   0  0  0  0  0  0  0  0  0  0  0  0
  -29.1543  -29.8058  -18.4620 C   0  0  0  0  0  0  0  0  0  0  0  0
  -27.8994  -29.8453  -17.8252 C   0  0  0  0  0  0  0  0  0  0  0  0
  -27.4759  -29.7175  -16.4765 C   0  0  0  0  0  0  0  0  0  0  0  0
  -26.1122  -29.8933  -16.4402 C   0  0  0  0  0  0  0  0  0  0  0  0
  -25.6863  -30.1353  -17.7190 N   0  0  0  0  0  0  0  0  0  0  0  0
  -26.7614  -30.1304  -18.5827 C   0  0  0  0  0  0  0  0  0  0  0  0
  2  1  1  6
  2  3  1  0
  2  4  1  0
  4  5  1  0
  5  6  1  0
  6  7  2  0
  6  8  1  0
  8  9  1  0
  9 10  2  0
 10 11  1  0
 11 12  2  0
 12 13  1  0
 13 14  1  0
 14 15  2  0
 15 16  1  0
 16 17  1  0
 17  9  1  0
 17 13  2  0
M  END
>  <HIPPO Pose ID>  (373) 
132071

>  <fragmenstein_outcome>  (373) 
acceptable

>  <energy_score>  (373) 
-3.948916

>  <distance_score>  (373) 
0.678419

>  <fragmenstein_mode>  (373) 
expansion

>  <HIPPO Compound ID>  (373) 
34701

>  <name>  (373) 
XYRDJRCBUAYREB-MRVPVSSYSA-N

>  <ref_pdb>  (373) 
z0211a

>  <ref_mols>  (373) 
z0041a,z0211a

>  <csv_name>  (373) 
RdRp_knitwork_green_site_rna_tunnel_pure_split4000_batch008.csv

>  <fragmenstein_runtime>  (373) 
4.191432

>  <tags>  (373) 
['Fragmenstein placed']

>  <original ID>  (373) 
XYRDJRCBUAYREB-MRVPVSSYSA-N

>  <fragmenstein_error>  (373) 
None

>  <original SMILES>  (373) 
C[C@@H](O)CNC(=O)Nc1cccc2cc[nH]c12

>  <inchikey>  (373) 
XYRDJRCBUAYREB-MRVPVSSYSA-N

>  <SLURM_JOB_NAME>  (373) 
BulkDock.place:Flavi_NS5_RdRp:RdRp_knitwork_green_site_rna_tunnel_pure_split4000_batch008

>  <scratch_subdir>  (373) 
/opt/xchem-fragalysis-2/maxwin/BulkDock/SCRATCH/217079/C34701-P102

>  <alias>  (373) 
None

>  <SLURM_JOB_ID>  (373) 
217079

>  <exports>  (373) 
['/opt/xchem-fragalysis-2/maxwin/BulkDock/OUTPUTS/RdRp_knitwork_green_site_rna_tunnel_pure_split4000_batch008_217079.sdf']

$$$$
132202
     RDKit          3D

 20 21  0  0  0  0  0  0  0  0999 V2000
  -24.4584  -31.3358  -14.6622 C   0  0  0  0  0  0  0  0  0  0  0  0
  -25.7997  -31.3394  -15.3757 C   0  0  0  0  0  0  0  0  0  0  0  0
  -26.3334  -29.9287  -15.5974 C   0  0  0  0  0  0  0  0  0  0  0  0
  -27.5122  -29.8610  -16.4488 N   0  0  0  0  0  0  0  0  0  0  0  0
  -28.8041  -29.7455  -16.0132 C   0  0  0  0  0  0  0  0  0  0  0  0
  -29.6250  -29.7170  -17.1199 C   0  0  0  0  0  0  0  0  0  0  0  0
  -28.8081  -29.8343  -18.2767 C   0  0  0  0  0  0  0  0  0  0  0  0
  -29.0569  -29.9150  -19.6623 C   0  0  0  0  0  0  0  0  0  0  0  0
  -27.9875  -30.1566  -20.5348 C   0  0  0  0  0  0  0  0  0  0  0  0
  -26.7012  -30.3279  -20.0333 C   0  0  0  0  0  0  0  0  0  0  0  0
  -25.6416  -30.7400  -20.8196 N   0  0  0  0  0  0  0  0  0  0  0  0
  -25.5257  -30.8699  -22.3565 C   0  0  0  0  0  0  0  0  0  0  0  0
  -26.2604  -30.5835  -23.1754 O   0  0  0  0  0  0  0  0  0  0  0  0
  -24.1655  -31.5941  -22.4449 N   0  0  0  0  0  0  0  0  0  0  0  0
  -23.5017  -32.1863  -23.5663 C   0  0  0  0  0  0  0  0  0  0  0  0
  -21.9849  -31.9915  -23.4775 C   0  0  2  0  0  0  0  0  0  0  0  0
  -21.2617  -33.1502  -24.1306 C   0  0  0  0  0  0  0  0  0  0  0  0
  -21.5578  -31.9085  -22.1103 O   0  0  0  0  0  0  0  0  0  0  0  0
  -26.4224  -30.1682  -18.6810 C   0  0  0  0  0  0  0  0  0  0  0  0
  -27.4932  -29.9323  -17.8219 C   0  0  0  0  0  0  0  0  0  0  0  0
  1  2  1  0
  2  3  1  0
  3  4  1  0
  4  5  1  0
  5  6  2  0
  6  7  1  0
  7  8  2  0
  8  9  1  0
  9 10  2  0
 10 11  1  0
 11 12  1  0
 12 13  2  0
 12 14  1  0
 14 15  1  0
 15 16  1  0
 16 17  1  1
 16 18  1  0
 10 19  1  0
 19 20  2  0
 20  4  1  0
 20  7  1  0
M  END
>  <HIPPO Pose ID>  (374) 
132202

>  <fragmenstein_outcome>  (374) 
acceptable

>  <energy_score>  (374) 
-4.236385

>  <distance_score>  (374) 
0.896831

>  <fragmenstein_mode>  (374) 
expansion

>  <HIPPO Compound ID>  (374) 
35145

>  <name>  (374) 
OXHXBAHSHMBTDQ-NSHDSACASA-N

>  <ref_pdb>  (374) 
z0211a

>  <ref_mols>  (374) 
z0041a,z0211a

>  <csv_name>  (374) 
RdRp_knitwork_green_site_rna_tunnel_pure_split4000_batch008.csv

>  <fragmenstein_runtime>  (374) 
9.56863

>  <tags>  (374) 
['Fragmenstein placed']

>  <original ID>  (374) 
OXHXBAHSHMBTDQ-NSHDSACASA-N

>  <fragmenstein_error>  (374) 
None

>  <original SMILES>  (374) 
CCCn1ccc2ccc(NC(=O)NC[C@H](C)O)cc21

>  <inchikey>  (374) 
OXHXBAHSHMBTDQ-NSHDSACASA-N

>  <SLURM_JOB_NAME>  (374) 
BulkDock.place:Flavi_NS5_RdRp:RdRp_knitwork_green_site_rna_tunnel_pure_split4000_batch008

>  <scratch_subdir>  (374) 
/opt/xchem-fragalysis-2/maxwin/BulkDock/SCRATCH/217079/C35145-P102

>  <alias>  (374) 
None

>  <SLURM_JOB_ID>  (374) 
217079

>  <exports>  (374) 
['/opt/xchem-fragalysis-2/maxwin/BulkDock/OUTPUTS/RdRp_knitwork_green_site_rna_tunnel_pure_split4000_batch008_217079.sdf']

$$$$
132293
     RDKit          3D

 13 14  0  0  0  0  0  0  0  0999 V2000
  -24.2703  -30.6169  -17.8550 O   0  0  0  0  0  0  0  0  0  0  0  0
  -25.0875  -31.0810  -18.6384 C   0  0  0  0  0  0  0  0  0  0  0  0
  -25.5015  -32.5435  -18.6751 C   0  0  0  0  0  0  0  0  0  0  0  0
  -26.2422  -32.6012  -19.9049 N   0  0  0  0  0  0  0  0  0  0  0  0
  -26.3198  -31.3600  -20.4952 C   0  0  0  0  0  0  0  0  0  0  0  0
  -26.8775  -31.1538  -21.5598 O   0  0  0  0  0  0  0  0  0  0  0  0
  -25.6922  -30.4556  -19.6988 N   0  0  0  0  0  0  0  0  0  0  0  0
  -25.4469  -29.1233  -20.0262 C   0  0  0  0  0  0  0  0  0  0  0  0
  -25.2182  -28.7581  -21.3496 C   0  0  0  0  0  0  0  0  0  0  0  0
  -24.7738  -27.4699  -21.6259 C   0  0  0  0  0  0  0  0  0  0  0  0
  -24.6769  -26.5531  -20.5952 C   0  0  0  0  0  0  0  0  0  0  0  0
  -25.0220  -26.9676  -19.3238 C   0  0  0  0  0  0  0  0  0  0  0  0
  -25.3716  -28.2289  -19.0189 N   0  0  0  0  0  0  0  0  0  0  0  0
  1  2  2  0
  2  3  1  0
  3  4  1  0
  4  5  1  0
  5  6  2  0
  5  7  1  0
  7  8  1  0
  8  9  2  0
  9 10  1  0
 10 11  2  0
 11 12  1  0
 12 13  2  0
  7  2  1  0
 13  8  1  0
M  END
>  <HIPPO Pose ID>  (375) 
132293

>  <fragmenstein_outcome>  (375) 
acceptable

>  <energy_score>  (375) 
-34.121801

>  <distance_score>  (375) 
0.675751

>  <fragmenstein_mode>  (375) 
expansion

>  <HIPPO Compound ID>  (375) 
35387

>  <name>  (375) 
UAUOKJPOLSPRCB-UHFFFAOYSA-N

>  <ref_pdb>  (375) 
d0472b

>  <ref_mols>  (375) 
d0472b,z0519a

>  <csv_name>  (375) 
RdRp_knitwork_green_site_rna_tunnel_pure_split4000_batch014.csv

>  <fragmenstein_runtime>  (375) 
2.866338

>  <tags>  (375) 
['Fragmenstein placed']

>  <original ID>  (375) 
UAUOKJPOLSPRCB-UHFFFAOYSA-N

>  <fragmenstein_error>  (375) 
None

>  <original SMILES>  (375) 
O=C1CNC(=O)N1c1ccccn1

>  <inchikey>  (375) 
UAUOKJPOLSPRCB-UHFFFAOYSA-N

>  <SLURM_JOB_NAME>  (375) 
BulkDock.place:Flavi_NS5_RdRp:RdRp_knitwork_green_site_rna_tunnel_pure_split4000_batch014

>  <scratch_subdir>  (375) 
/opt/xchem-fragalysis-2/maxwin/BulkDock/SCRATCH/217085/C35387-P41

>  <alias>  (375) 
None

>  <SLURM_JOB_ID>  (375) 
217085

>  <exports>  (375) 
['/opt/xchem-fragalysis-2/maxwin/BulkDock/OUTPUTS/RdRp_knitwork_green_site_rna_tunnel_pure_split4000_batch014_217085.sdf']

$$$$
133849
     RDKit          3D

 20 21  0  0  0  0  0  0  0  0999 V2000
  -29.3443  -30.1412  -22.3911 C   0  0  0  0  0  0  0  0  0  0  0  0
  -28.5435  -30.0606  -21.1754 C   0  0  0  0  0  0  0  0  0  0  0  0
  -29.0856  -29.7907  -19.9286 C   0  0  0  0  0  0  0  0  0  0  0  0
  -28.0644  -29.8942  -19.0466 N   0  0  0  0  0  0  0  0  0  0  0  0
  -28.0963  -29.9823  -17.6069 C   0  0  0  0  0  0  0  0  0  0  0  0
  -26.7036  -29.8833  -16.9198 C   0  0  0  0  0  0  0  0  0  0  0  0
  -26.7334  -30.1541  -15.4232 C   0  0  0  0  0  0  0  0  0  0  0  0
  -28.1487  -30.3348  -14.9445 C   0  0  0  0  0  0  0  0  0  0  0  0
  -29.0716  -29.2516  -15.4471 C   0  0  0  0  0  0  0  0  0  0  0  0
  -29.0693  -29.0449  -16.9454 C   0  0  0  0  0  0  0  0  0  0  0  0
  -26.9384  -30.2589  -19.6286 N   0  0  0  0  0  0  0  0  0  0  0  0
  -27.1916  -30.3374  -20.9288 C   0  0  0  0  0  0  0  0  0  0  0  0
  -26.0765  -30.7455  -21.5734 N   0  0  0  0  0  0  0  0  0  0  0  0
  -25.8646  -31.1496  -23.0438 C   0  0  0  0  0  0  0  0  0  0  0  0
  -26.5832  -31.1212  -23.9264 O   0  0  0  0  0  0  0  0  0  0  0  0
  -24.4206  -31.7006  -22.9456 N   0  0  0  0  0  0  0  0  0  0  0  0
  -23.6337  -32.4049  -23.9036 C   0  0  0  0  0  0  0  0  0  0  0  0
  -22.1491  -32.2664  -23.5296 C   0  0  2  0  0  0  0  0  0  0  0  0
  -21.2965  -33.1743  -24.3899 C   0  0  0  0  0  0  0  0  0  0  0  0
  -21.9335  -32.6074  -22.1507 O   0  0  0  0  0  0  0  0  0  0  0  0
  1  2  1  0
  2  3  2  0
  3  4  1  0
  4  5  1  0
  5  6  1  0
  6  7  1  0
  7  8  1  0
  8  9  1  0
  9 10  1  0
  4 11  1  0
 11 12  2  0
 12 13  1  0
 13 14  1  0
 14 15  2  0
 14 16  1  0
 16 17  1  0
 17 18  1  0
 18 19  1  6
 18 20  1  0
 12  2  1  0
 10  5  1  0
M  END
>  <HIPPO Pose ID>  (376) 
133849

>  <fragmenstein_outcome>  (376) 
acceptable

>  <energy_score>  (376) 
-19.005621

>  <distance_score>  (376) 
0.986033

>  <fragmenstein_mode>  (376) 
expansion

>  <HIPPO Compound ID>  (376) 
54123

>  <name>  (376) 
DBRZTKKVIQOBQT-NSHDSACASA-N

>  <ref_pdb>  (376) 
z0936a

>  <ref_mols>  (376) 
z0211a,z0936a

>  <csv_name>  (376) 
RdRp_knitwork_green_site_rna_tunnel_pure_split4000_batch011.csv

>  <fragmenstein_runtime>  (376) 
5.734726

>  <tags>  (376) 
['Fragmenstein placed']

>  <original ID>  (376) 
DBRZTKKVIQOBQT-NSHDSACASA-N

>  <fragmenstein_error>  (376) 
None

>  <original SMILES>  (376) 
Cc1cn(C2CCCCC2)nc1NC(=O)NC[C@H](C)O

>  <inchikey>  (376) 
DBRZTKKVIQOBQT-NSHDSACASA-N

>  <SLURM_JOB_NAME>  (376) 
BulkDock.place:Flavi_NS5_RdRp:RdRp_knitwork_green_site_rna_tunnel_pure_split4000_batch011

>  <scratch_subdir>  (376) 
/opt/xchem-fragalysis-2/maxwin/BulkDock/SCRATCH/217082/C54123-P196

>  <alias>  (376) 
None

>  <SLURM_JOB_ID>  (376) 
217082

>  <exports>  (376) 
['/opt/xchem-fragalysis-2/maxwin/BulkDock/OUTPUTS/RdRp_knitwork_green_site_rna_tunnel_pure_split4000_batch011_217082.sdf']

$$$$
134194
     RDKit          3D

 20 21  0  0  0  0  0  0  0  0999 V2000
  -30.1627  -30.2178  -20.0305 C   0  0  0  0  0  0  0  0  0  0  0  0
  -28.6969  -30.0770  -20.0929 C   0  0  0  0  0  0  0  0  0  0  0  0
  -27.9004  -30.1681  -21.2171 C   0  0  0  0  0  0  0  0  0  0  0  0
  -26.6208  -30.3720  -20.7145 C   0  0  0  0  0  0  0  0  0  0  0  0
  -25.5249  -30.7978  -21.3553 N   0  0  0  0  0  0  0  0  0  0  0  0
  -25.2520  -30.9641  -22.8578 C   0  0  0  0  0  0  0  0  0  0  0  0
  -25.8916  -30.6919  -23.7536 O   0  0  0  0  0  0  0  0  0  0  0  0
  -23.9059  -31.6978  -22.7858 N   0  0  0  0  0  0  0  0  0  0  0  0
  -23.1408  -32.3171  -23.8073 C   0  0  0  0  0  0  0  0  0  0  0  0
  -21.6564  -32.0874  -23.5666 C   0  0  2  0  0  0  0  0  0  0  0  0
  -20.8873  -33.0604  -24.4261 C   0  0  0  0  0  0  0  0  0  0  0  0
  -21.3289  -32.3343  -22.1936 O   0  0  0  0  0  0  0  0  0  0  0  0
  -26.5489  -30.1684  -19.4177 N   0  0  0  0  0  0  0  0  0  0  0  0
  -27.8170  -29.9466  -19.0210 N   0  0  0  0  0  0  0  0  0  0  0  0
  -28.0175  -29.8106  -17.6291 C   0  0  0  0  0  0  0  0  0  0  0  0
  -26.8799  -29.8573  -16.7891 C   0  0  0  0  0  0  0  0  0  0  0  0
  -27.0260  -30.0630  -15.4299 C   0  0  0  0  0  0  0  0  0  0  0  0
  -28.3074  -30.1927  -14.9264 C   0  0  0  0  0  0  0  0  0  0  0  0
  -29.4198  -30.0442  -15.7317 C   0  0  0  0  0  0  0  0  0  0  0  0
  -29.2880  -29.8131  -17.0795 C   0  0  0  0  0  0  0  0  0  0  0  0
  1  2  1  0
  2  3  2  0
  3  4  1  0
  4  5  1  0
  5  6  1  0
  6  7  2  0
  6  8  1  0
  8  9  1  0
  9 10  1  0
 10 11  1  6
 10 12  1  0
  4 13  2  0
 13 14  1  0
 14 15  1  0
 15 16  2  0
 16 17  1  0
 17 18  2  0
 18 19  1  0
 19 20  2  0
 14  2  1  0
 20 15  1  0
M  END
>  <HIPPO Pose ID>  (377) 
134194

>  <fragmenstein_outcome>  (377) 
acceptable

>  <energy_score>  (377) 
-27.197895

>  <distance_score>  (377) 
0.966314

>  <fragmenstein_mode>  (377) 
expansion

>  <HIPPO Compound ID>  (377) 
55149

>  <name>  (377) 
UIINRFUWBVLBNK-NSHDSACASA-N

>  <ref_pdb>  (377) 
z0211a

>  <ref_mols>  (377) 
z0211a,z0936a

>  <csv_name>  (377) 
RdRp_knitwork_green_site_rna_tunnel_pure_split4000_batch011.csv

>  <fragmenstein_runtime>  (377) 
4.648608

>  <tags>  (377) 
['Fragmenstein placed']

>  <original ID>  (377) 
UIINRFUWBVLBNK-NSHDSACASA-N

>  <fragmenstein_error>  (377) 
None

>  <original SMILES>  (377) 
Cc1cc(NC(=O)NC[C@H](C)O)nn1-c1ccccc1

>  <inchikey>  (377) 
UIINRFUWBVLBNK-NSHDSACASA-N

>  <SLURM_JOB_NAME>  (377) 
BulkDock.place:Flavi_NS5_RdRp:RdRp_knitwork_green_site_rna_tunnel_pure_split4000_batch011

>  <scratch_subdir>  (377) 
/opt/xchem-fragalysis-2/maxwin/BulkDock/SCRATCH/217082/C55149-P102

>  <alias>  (377) 
None

>  <SLURM_JOB_ID>  (377) 
217082

>  <exports>  (377) 
['/opt/xchem-fragalysis-2/maxwin/BulkDock/OUTPUTS/RdRp_knitwork_green_site_rna_tunnel_pure_split4000_batch011_217082.sdf']

$$$$
134204
     RDKit          3D

 23 25  0  0  0  0  0  0  0  0999 V2000
  -31.1093  -33.3831  -14.4476 C   0  0  0  0  0  0  0  0  0  0  0  0
  -31.0687  -33.5309  -15.9563 C   0  0  0  0  0  0  0  0  0  0  0  0
  -30.1855  -32.5682  -16.5649 N   0  0  0  0  0  0  0  0  0  0  0  0
  -30.2484  -31.0370  -16.5922 C   0  0  0  0  0  0  0  0  0  0  0  0
  -31.0619  -30.3093  -16.1947 O   0  0  0  0  0  0  0  0  0  0  0  0
  -29.0329  -30.4822  -17.2129 C   0  0  0  0  0  0  0  0  0  0  0  0
  -27.9163  -30.3920  -16.3936 C   0  0  0  0  0  0  0  0  0  0  0  0
  -26.7728  -29.8535  -16.9351 C   0  0  0  0  0  0  0  0  0  0  0  0
  -25.6018  -29.9975  -16.2217 N   0  0  0  0  0  0  0  0  0  0  0  0
  -24.2558  -29.2467  -16.3388 C   0  0  0  0  0  0  0  0  0  0  0  0
  -23.9518  -28.3360  -17.0054 O   0  0  0  0  0  0  0  0  0  0  0  0
  -23.2709  -29.9532  -15.4916 C   0  0  0  0  0  0  0  0  0  0  0  0
  -23.4704  -30.3176  -14.1723 C   0  0  0  0  0  0  0  0  0  0  0  0
  -22.1965  -31.3184  -13.6181 S   0  0  0  0  0  0  0  0  0  0  0  0
  -21.4528  -31.1826  -15.1540 C   0  0  0  0  0  0  0  0  0  0  0  0
  -22.0862  -30.4512  -16.0422 N   0  0  0  0  0  0  0  0  0  0  0  0
  -26.7062  -29.3933  -18.1966 N   0  0  0  0  0  0  0  0  0  0  0  0
  -27.7718  -29.5484  -19.0066 C   0  0  0  0  0  0  0  0  0  0  0  0
  -27.6583  -29.2061  -20.3474 C   0  0  0  0  0  0  0  0  0  0  0  0
  -28.7057  -29.4127  -21.2484 C   0  0  0  0  0  0  0  0  0  0  0  0
  -29.9136  -29.9290  -20.8056 C   0  0  0  0  0  0  0  0  0  0  0  0
  -30.0588  -30.2677  -19.4673 C   0  0  0  0  0  0  0  0  0  0  0  0
  -28.9874  -30.1000  -18.5623 C   0  0  0  0  0  0  0  0  0  0  0  0
  1  2  1  0
  2  3  1  0
  3  4  1  0
  4  5  2  0
  4  6  1  0
  6  7  2  0
  7  8  1  0
  8  9  1  0
  9 10  1  0
 10 11  2  0
 10 12  1  0
 12 13  2  0
 13 14  1  0
 14 15  1  0
 15 16  2  0
  8 17  2  0
 17 18  1  0
 18 19  2  0
 19 20  1  0
 20 21  2  0
 21 22  1  0
 22 23  2  0
 23  6  1  0
 16 12  1  0
 23 18  1  0
M  END
>  <HIPPO Pose ID>  (378) 
134204

>  <fragmenstein_outcome>  (378) 
acceptable

>  <energy_score>  (378) 
-39.158583

>  <distance_score>  (378) 
0.935336

>  <fragmenstein_mode>  (378) 
expansion

>  <HIPPO Compound ID>  (378) 
38052

>  <name>  (378) 
YIHCFFQXNGPDDX-UHFFFAOYSA-N

>  <ref_pdb>  (378) 
z0496a

>  <ref_mols>  (378) 
z0496a,z0881a

>  <csv_name>  (378) 
RdRp_knitwork_green_site_rna_tunnel_pure_split4000_batch009.csv

>  <fragmenstein_runtime>  (378) 
7.826808

>  <tags>  (378) 
['Fragmenstein placed']

>  <original ID>  (378) 
YIHCFFQXNGPDDX-UHFFFAOYSA-N

>  <fragmenstein_error>  (378) 
None

>  <original SMILES>  (378) 
CCNC(=O)c1cc(NC(=O)c2cscn2)nc2ccccc12

>  <inchikey>  (378) 
YIHCFFQXNGPDDX-UHFFFAOYSA-N

>  <SLURM_JOB_NAME>  (378) 
BulkDock.place:Flavi_NS5_RdRp:RdRp_knitwork_green_site_rna_tunnel_pure_split4000_batch009

>  <scratch_subdir>  (378) 
/opt/xchem-fragalysis-2/maxwin/BulkDock/SCRATCH/217080/C38052-P136

>  <alias>  (378) 
None

>  <SLURM_JOB_ID>  (378) 
217080

>  <exports>  (378) 
['/opt/xchem-fragalysis-2/maxwin/BulkDock/OUTPUTS/RdRp_knitwork_green_site_rna_tunnel_pure_split4000_batch009_217080.sdf']

$$$$
134209
     RDKit          3D

 20 21  0  0  0  0  0  0  0  0999 V2000
  -30.5290  -30.3799  -19.8544 C   0  0  0  0  0  0  0  0  0  0  0  0
  -29.1040  -30.2038  -20.1611 C   0  0  0  0  0  0  0  0  0  0  0  0
  -28.4791  -30.2820  -21.4081 C   0  0  0  0  0  0  0  0  0  0  0  0
  -27.1327  -30.4112  -21.1032 C   0  0  0  0  0  0  0  0  0  0  0  0
  -26.0099  -30.8040  -21.7279 N   0  0  0  0  0  0  0  0  0  0  0  0
  -25.7781  -31.2290  -23.1825 C   0  0  0  0  0  0  0  0  0  0  0  0
  -26.4885  -31.2333  -24.0698 O   0  0  0  0  0  0  0  0  0  0  0  0
  -24.3264  -31.7445  -23.0623 N   0  0  0  0  0  0  0  0  0  0  0  0
  -23.5174  -32.4479  -23.9983 C   0  0  0  0  0  0  0  0  0  0  0  0
  -22.0482  -32.2084  -23.6248 C   0  0  2  0  0  0  0  0  0  0  0  0
  -21.1481  -33.1221  -24.4231 C   0  0  0  0  0  0  0  0  0  0  0  0
  -21.8401  -32.4734  -22.2268 O   0  0  0  0  0  0  0  0  0  0  0  0
  -26.9135  -30.2503  -19.8160 N   0  0  0  0  0  0  0  0  0  0  0  0
  -28.0924  -30.1030  -19.2132 N   0  0  0  0  0  0  0  0  0  0  0  0
  -28.0284  -29.9655  -17.7948 C   0  0  0  0  0  0  0  0  0  0  0  0
  -26.7425  -30.0437  -17.1883 C   0  0  0  0  0  0  0  0  0  0  0  0
  -26.5579  -29.8987  -15.8252 C   0  0  0  0  0  0  0  0  0  0  0  0
  -27.6700  -29.6918  -15.0429 C   0  0  0  0  0  0  0  0  0  0  0  0
  -28.9387  -29.6431  -15.6111 C   0  0  0  0  0  0  0  0  0  0  0  0
  -29.1344  -29.7744  -16.9843 C   0  0  0  0  0  0  0  0  0  0  0  0
  1  2  1  0
  2  3  2  0
  3  4  1  0
  4  5  1  0
  5  6  1  0
  6  7  2  0
  6  8  1  0
  8  9  1  0
  9 10  1  0
 10 11  1  6
 10 12  1  0
  4 13  2  0
 13 14  1  0
 14 15  1  0
 15 16  2  0
 16 17  1  0
 17 18  2  0
 18 19  1  0
 19 20  2  0
 14  2  1  0
 20 15  1  0
M  END
>  <HIPPO Pose ID>  (379) 
134209

>  <fragmenstein_outcome>  (379) 
acceptable

>  <energy_score>  (379) 
-27.017101

>  <distance_score>  (379) 
0.979805

>  <fragmenstein_mode>  (379) 
expansion

>  <HIPPO Compound ID>  (379) 
55149

>  <name>  (379) 
UIINRFUWBVLBNK-NSHDSACASA-N

>  <ref_pdb>  (379) 
z0936a

>  <ref_mols>  (379) 
z0211a,z0936a

>  <csv_name>  (379) 
RdRp_knitwork_green_site_rna_tunnel_pure_split4000_batch011.csv

>  <fragmenstein_runtime>  (379) 
4.277842

>  <tags>  (379) 
['Fragmenstein placed']

>  <original ID>  (379) 
UIINRFUWBVLBNK-NSHDSACASA-N

>  <fragmenstein_error>  (379) 
None

>  <original SMILES>  (379) 
Cc1cc(NC(=O)NC[C@H](C)O)nn1-c1ccccc1

>  <inchikey>  (379) 
UIINRFUWBVLBNK-NSHDSACASA-N

>  <SLURM_JOB_NAME>  (379) 
BulkDock.place:Flavi_NS5_RdRp:RdRp_knitwork_green_site_rna_tunnel_pure_split4000_batch011

>  <scratch_subdir>  (379) 
/opt/xchem-fragalysis-2/maxwin/BulkDock/SCRATCH/217082/C55149-P196

>  <alias>  (379) 
None

>  <SLURM_JOB_ID>  (379) 
217082

>  <exports>  (379) 
['/opt/xchem-fragalysis-2/maxwin/BulkDock/OUTPUTS/RdRp_knitwork_green_site_rna_tunnel_pure_split4000_batch011_217082.sdf']

$$$$
134256
     RDKit          3D

 19 20  0  0  0  0  0  0  0  0999 V2000
  -21.3896  -33.1582  -24.3603 C   0  0  0  0  0  0  0  0  0  0  0  0
  -22.2643  -32.1470  -23.6508 C   0  0  2  0  0  0  0  0  0  0  0  0
  -21.9971  -32.2374  -22.2394 O   0  0  0  0  0  0  0  0  0  0  0  0
  -23.7569  -32.3865  -23.9628 C   0  0  0  0  0  0  0  0  0  0  0  0
  -24.5291  -31.9103  -22.8644 N   0  0  0  0  0  0  0  0  0  0  0  0
  -25.8817  -31.1585  -22.8408 C   0  0  0  0  0  0  0  0  0  0  0  0
  -26.5896  -30.8892  -23.6911 O   0  0  0  0  0  0  0  0  0  0  0  0
  -26.0064  -30.9159  -21.3261 N   0  0  0  0  0  0  0  0  0  0  0  0
  -27.0349  -30.3970  -20.5949 C   0  0  0  0  0  0  0  0  0  0  0  0
  -26.8587  -30.3844  -19.2355 C   0  0  0  0  0  0  0  0  0  0  0  0
  -28.0088  -29.8692  -18.6694 C   0  0  0  0  0  0  0  0  0  0  0  0
  -28.0544  -29.7030  -17.2204 C   0  0  0  0  0  0  0  0  0  0  0  0
  -26.8522  -29.7181  -16.4192 C   0  0  0  0  0  0  0  0  0  0  0  0
  -27.1142  -29.7036  -15.0759 C   0  0  0  0  0  0  0  0  0  0  0  0
  -28.7731  -29.5495  -14.7963 S   0  0  0  0  0  0  0  0  0  0  0  0
  -29.1795  -29.5849  -16.4486 C   0  0  0  0  0  0  0  0  0  0  0  0
  -28.9400  -29.6359  -19.5978 N   0  0  0  0  0  0  0  0  0  0  0  0
  -28.3182  -29.9665  -20.7849 N   0  0  0  0  0  0  0  0  0  0  0  0
  -29.1281  -30.0092  -21.9713 C   0  0  0  0  0  0  0  0  0  0  0  0
  2  1  1  6
  2  3  1  0
  2  4  1  0
  4  5  1  0
  5  6  1  0
  6  7  2  0
  6  8  1  0
  8  9  1  0
  9 10  2  0
 10 11  1  0
 11 12  1  0
 12 13  1  0
 13 14  2  0
 14 15  1  0
 15 16  1  0
 11 17  2  0
 17 18  1  0
 18 19  1  0
 18  9  1  0
 16 12  2  0
M  END
>  <HIPPO Pose ID>  (380) 
134256

>  <fragmenstein_outcome>  (380) 
acceptable

>  <energy_score>  (380) 
-33.785707

>  <distance_score>  (380) 
0.902423

>  <fragmenstein_mode>  (380) 
expansion

>  <HIPPO Compound ID>  (380) 
55156

>  <name>  (380) 
WXJNUXZTXDROIJ-QMMMGPOBSA-N

>  <ref_pdb>  (380) 
z0936a

>  <ref_mols>  (380) 
z0211a,z0936a

>  <csv_name>  (380) 
RdRp_knitwork_green_site_rna_tunnel_pure_split4000_batch011.csv

>  <fragmenstein_runtime>  (380) 
5.559356

>  <tags>  (380) 
['Fragmenstein placed']

>  <original ID>  (380) 
WXJNUXZTXDROIJ-QMMMGPOBSA-N

>  <fragmenstein_error>  (380) 
None

>  <original SMILES>  (380) 
C[C@H](O)CNC(=O)Nc1cc(-c2ccsc2)nn1C

>  <inchikey>  (380) 
WXJNUXZTXDROIJ-QMMMGPOBSA-N

>  <SLURM_JOB_NAME>  (380) 
BulkDock.place:Flavi_NS5_RdRp:RdRp_knitwork_green_site_rna_tunnel_pure_split4000_batch011

>  <scratch_subdir>  (380) 
/opt/xchem-fragalysis-2/maxwin/BulkDock/SCRATCH/217082/C55156-P196

>  <alias>  (380) 
None

>  <SLURM_JOB_ID>  (380) 
217082

>  <exports>  (380) 
['/opt/xchem-fragalysis-2/maxwin/BulkDock/OUTPUTS/RdRp_knitwork_green_site_rna_tunnel_pure_split4000_batch011_217082.sdf']

$$$$
134267
     RDKit          3D

 19 20  0  0  0  0  0  0  0  0999 V2000
  -20.9423  -33.2325  -24.0750 C   0  0  0  0  0  0  0  0  0  0  0  0
  -21.7269  -32.0467  -23.5796 C   0  0  2  0  0  0  0  0  0  0  0  0
  -21.4345  -31.8715  -22.1860 O   0  0  0  0  0  0  0  0  0  0  0  0
  -23.2147  -32.3089  -23.8047 C   0  0  0  0  0  0  0  0  0  0  0  0
  -23.9624  -31.6985  -22.7645 N   0  0  0  0  0  0  0  0  0  0  0  0
  -25.3010  -30.9493  -22.8097 C   0  0  0  0  0  0  0  0  0  0  0  0
  -25.9473  -30.6553  -23.6938 O   0  0  0  0  0  0  0  0  0  0  0  0
  -25.5557  -30.8054  -21.3015 N   0  0  0  0  0  0  0  0  0  0  0  0
  -26.6403  -30.3781  -20.6412 C   0  0  0  0  0  0  0  0  0  0  0  0
  -27.9026  -30.0228  -21.1317 C   0  0  0  0  0  0  0  0  0  0  0  0
  -28.6359  -29.7542  -20.0026 C   0  0  0  0  0  0  0  0  0  0  0  0
  -27.7631  -29.8693  -18.9372 N   0  0  0  0  0  0  0  0  0  0  0  0
  -28.0598  -29.7530  -17.5589 C   0  0  0  0  0  0  0  0  0  0  0  0
  -29.3629  -29.7474  -17.2487 N   0  0  0  0  0  0  0  0  0  0  0  0
  -29.6382  -29.9818  -15.9709 C   0  0  0  0  0  0  0  0  0  0  0  0
  -28.6873  -30.1181  -14.9910 C   0  0  0  0  0  0  0  0  0  0  0  0
  -27.3805  -30.0302  -15.3890 C   0  0  0  0  0  0  0  0  0  0  0  0
  -27.0401  -29.8428  -16.6660 N   0  0  0  0  0  0  0  0  0  0  0  0
  -26.5392  -30.2625  -19.3296 N   0  0  0  0  0  0  0  0  0  0  0  0
  2  1  1  1
  2  3  1  0
  2  4  1  0
  4  5  1  0
  5  6  1  0
  6  7  2  0
  6  8  1  0
  8  9  1  0
  9 10  1  0
 10 11  2  0
 11 12  1  0
 12 13  1  0
 13 14  2  0
 14 15  1  0
 15 16  2  0
 16 17  1  0
 17 18  2  0
 12 19  1  0
 19  9  2  0
 18 13  1  0
M  END
>  <HIPPO Pose ID>  (381) 
134267

>  <fragmenstein_outcome>  (381) 
acceptable

>  <energy_score>  (381) 
-45.80426

>  <distance_score>  (381) 
0.931112

>  <fragmenstein_mode>  (381) 
expansion

>  <HIPPO Compound ID>  (381) 
55174

>  <name>  (381) 
VRFUMBMWIYOQKS-QMMMGPOBSA-N

>  <ref_pdb>  (381) 
z0211a

>  <ref_mols>  (381) 
z0211a,z0936a

>  <csv_name>  (381) 
RdRp_knitwork_green_site_rna_tunnel_pure_split4000_batch011.csv

>  <fragmenstein_runtime>  (381) 
6.330409

>  <tags>  (381) 
['Fragmenstein placed']

>  <original ID>  (381) 
VRFUMBMWIYOQKS-QMMMGPOBSA-N

>  <fragmenstein_error>  (381) 
None

>  <original SMILES>  (381) 
C[C@H](O)CNC(=O)Nc1ccn(-c2ncccn2)n1

>  <inchikey>  (381) 
VRFUMBMWIYOQKS-QMMMGPOBSA-N

>  <SLURM_JOB_NAME>  (381) 
BulkDock.place:Flavi_NS5_RdRp:RdRp_knitwork_green_site_rna_tunnel_pure_split4000_batch011

>  <scratch_subdir>  (381) 
/opt/xchem-fragalysis-2/maxwin/BulkDock/SCRATCH/217082/C55174-P102

>  <alias>  (381) 
None

>  <SLURM_JOB_ID>  (381) 
217082

>  <exports>  (381) 
['/opt/xchem-fragalysis-2/maxwin/BulkDock/OUTPUTS/RdRp_knitwork_green_site_rna_tunnel_pure_split4000_batch011_217082.sdf']

$$$$
134282
     RDKit          3D

 10 11  0  0  0  0  0  0  0  0999 V2000
  -25.7386  -28.7297  -23.7264 C   0  0  0  0  0  0  0  0  0  0  0  0
  -26.5521  -29.3247  -22.8782 N   0  0  0  0  0  0  0  0  0  0  0  0
  -26.5851  -28.6131  -21.6925 C   0  0  0  0  0  0  0  0  0  0  0  0
  -27.3964  -29.1302  -20.4586 C   0  0  0  0  0  0  0  0  0  0  0  0
  -27.3217  -28.6095  -19.1854 C   0  0  0  0  0  0  0  0  0  0  0  0
  -28.0585  -29.2684  -18.2171 N   0  0  0  0  0  0  0  0  0  0  0  0
  -28.7282  -30.2465  -18.7877 C   0  0  0  0  0  0  0  0  0  0  0  0
  -28.4793  -30.4524  -20.4711 S   0  0  0  0  0  0  0  0  0  0  0  0
  -25.8340  -27.4519  -21.6853 C   0  0  0  0  0  0  0  0  0  0  0  0
  -25.0296  -27.2617  -23.1920 S   0  0  0  0  0  0  0  0  0  0  0  0
  1  2  2  0
  2  3  1  0
  3  4  1  0
  4  5  2  0
  5  6  1  0
  6  7  2  0
  7  8  1  0
  3  9  2  0
  9 10  1  0
 10  1  1  0
  8  4  1  0
M  END
>  <HIPPO Pose ID>  (382) 
134282

>  <fragmenstein_outcome>  (382) 
acceptable

>  <energy_score>  (382) 
-147.916759

>  <distance_score>  (382) 
0.923112

>  <fragmenstein_mode>  (382) 
expansion

>  <HIPPO Compound ID>  (382) 
8626

>  <name>  (382) 
AQIWYYUUFDZEPS-UHFFFAOYSA-N

>  <ref_pdb>  (382) 
z0496a

>  <ref_mols>  (382) 
z0384a,z0496a

>  <csv_name>  (382) 
RdRp_knitwork_green_site_rna_tunnel_pure_split4000_batch013.csv

>  <fragmenstein_runtime>  (382) 
1.272334

>  <tags>  (382) 
['Fragmenstein placed']

>  <original ID>  (382) 
AQIWYYUUFDZEPS-UHFFFAOYSA-N

>  <fragmenstein_error>  (382) 
None

>  <original SMILES>  (382) 
c1nc(-c2cncs2)cs1

>  <inchikey>  (382) 
AQIWYYUUFDZEPS-UHFFFAOYSA-N

>  <SLURM_JOB_NAME>  (382) 
BulkDock.place:Flavi_NS5_RdRp:RdRp_knitwork_green_site_rna_tunnel_pure_split4000_batch013

>  <scratch_subdir>  (382) 
/opt/xchem-fragalysis-2/maxwin/BulkDock/SCRATCH/217084/C8626-P136

>  <alias>  (382) 
None

>  <SLURM_JOB_ID>  (382) 
217084

>  <exports>  (382) 
['/opt/xchem-fragalysis-2/maxwin/BulkDock/OUTPUTS/RdRp_knitwork_green_site_rna_tunnel_pure_split4000_batch013_217084.sdf']

$$$$
134305
     RDKit          3D

 24 26  0  0  0  0  0  0  0  0999 V2000
  -24.3029  -32.6209  -15.0289 C   0  0  0  0  0  0  0  0  0  0  0  0
  -25.0584  -31.4163  -15.5669 C   0  0  0  0  0  0  0  0  0  0  0  0
  -26.1824  -30.9883  -14.6215 C   0  0  0  0  0  0  0  0  0  0  0  0
  -26.9157  -29.7417  -15.1216 C   0  0  0  0  0  0  0  0  0  0  0  0
  -27.8302  -30.0277  -16.2922 C   0  0  0  0  0  0  0  0  0  0  0  0
  -27.5244  -29.3076  -17.5629 C   0  0  0  0  0  0  0  0  0  0  0  0
  -28.1572  -29.7479  -18.6628 C   0  0  0  0  0  0  0  0  0  0  0  0
  -27.7676  -29.3657  -19.9491 N   0  0  0  0  0  0  0  0  0  0  0  0
  -26.5839  -30.0080  -20.5757 C   0  0  2  0  0  0  0  0  0  0  0  0
  -26.3926  -29.3040  -21.9010 C   0  0  0  0  0  0  0  0  0  0  0  0
  -26.9883  -29.7847  -23.0611 C   0  0  0  0  0  0  0  0  0  0  0  0
  -26.5801  -29.2980  -24.2879 C   0  0  0  0  0  0  0  0  0  0  0  0
  -25.7506  -28.2531  -24.4115 N   0  0  0  0  0  0  0  0  0  0  0  0
  -25.3085  -27.6842  -23.2730 C   0  0  0  0  0  0  0  0  0  0  0  0
  -25.5920  -28.1645  -22.0072 C   0  0  0  0  0  0  0  0  0  0  0  0
  -26.6896  -31.5831  -20.6229 C   0  0  0  0  0  0  0  0  0  0  0  0
  -26.2630  -32.2268  -19.2880 C   0  0  0  0  0  0  0  0  0  0  0  0
  -25.8257  -32.3182  -21.6591 C   0  0  0  0  0  0  0  0  0  0  0  0
  -29.1333  -30.7644  -18.5174 N   0  0  0  0  0  0  0  0  0  0  0  0
  -29.7946  -31.4714  -19.4758 N   0  0  0  0  0  0  0  0  0  0  0  0
  -30.3163  -32.4705  -18.7684 C   0  0  0  0  0  0  0  0  0  0  0  0
  -30.1631  -32.3900  -17.4201 N   0  0  0  0  0  0  0  0  0  0  0  0
  -29.4090  -31.3234  -17.2610 C   0  0  0  0  0  0  0  0  0  0  0  0
  -28.7730  -30.9055  -16.1294 N   0  0  0  0  0  0  0  0  0  0  0  0
  1  2  1  0
  2  3  1  0
  3  4  1  0
  4  5  1  0
  5  6  1  0
  6  7  2  0
  7  8  1  0
  9  8  1  6
  9 10  1  0
 10 11  2  0
 11 12  1  0
 12 13  2  0
 13 14  1  0
 14 15  2  0
  9 16  1  0
 16 17  1  0
 16 18  1  0
  7 19  1  0
 19 20  1  0
 20 21  2  0
 21 22  1  0
 22 23  2  0
 23 24  1  0
 24  5  2  0
 15 10  1  0
 23 19  1  0
M  END
>  <HIPPO Pose ID>  (383) 
134305

>  <fragmenstein_outcome>  (383) 
acceptable

>  <energy_score>  (383) 
-59.495316

>  <distance_score>  (383) 
0.880035

>  <fragmenstein_mode>  (383) 
expansion

>  <HIPPO Compound ID>  (383) 
35016

>  <name>  (383) 
DYAOPNDSHRZCDK-KRWDZBQOSA-N

>  <ref_pdb>  (383) 
z0221a

>  <ref_mols>  (383) 
z0221a,z0521a

>  <csv_name>  (383) 
RdRp_knitwork_green_site_rna_tunnel_pure_split4000_batch005.csv

>  <fragmenstein_runtime>  (383) 
11.095217

>  <tags>  (383) 
['Fragmenstein placed']

>  <original ID>  (383) 
DYAOPNDSHRZCDK-KRWDZBQOSA-N

>  <fragmenstein_error>  (383) 
None

>  <original SMILES>  (383) 
CCCCc1cc(N[C@H](c2ccncc2)C(C)C)n2ncnc2n1

>  <inchikey>  (383) 
DYAOPNDSHRZCDK-KRWDZBQOSA-N

>  <SLURM_JOB_NAME>  (383) 
BulkDock.place:Flavi_NS5_RdRp:RdRp_knitwork_green_site_rna_tunnel_pure_split4000_batch005

>  <scratch_subdir>  (383) 
/opt/xchem-fragalysis-2/maxwin/BulkDock/SCRATCH/217076/C35016-P105

>  <alias>  (383) 
None

>  <SLURM_JOB_ID>  (383) 
217076

>  <exports>  (383) 
['/opt/xchem-fragalysis-2/maxwin/BulkDock/OUTPUTS/RdRp_knitwork_green_site_rna_tunnel_pure_split4000_batch005_217076.sdf']

$$$$
134477
     RDKit          3D

 18 19  0  0  0  0  0  0  0  0999 V2000
  -21.1914  -33.1441  -24.3051 C   0  0  0  0  0  0  0  0  0  0  0  0
  -21.9829  -32.0449  -23.6361 C   0  0  2  0  0  0  0  0  0  0  0  0
  -21.6352  -32.0389  -22.2425 O   0  0  0  0  0  0  0  0  0  0  0  0
  -23.4861  -32.2858  -23.8329 C   0  0  0  0  0  0  0  0  0  0  0  0
  -24.1910  -31.8166  -22.6877 N   0  0  0  0  0  0  0  0  0  0  0  0
  -25.4635  -30.9552  -22.5829 C   0  0  0  0  0  0  0  0  0  0  0  0
  -26.1581  -30.5700  -23.3940 O   0  0  0  0  0  0  0  0  0  0  0  0
  -25.5589  -30.8360  -21.0533 N   0  0  0  0  0  0  0  0  0  0  0  0
  -26.5348  -30.3221  -20.2754 C   0  0  0  0  0  0  0  0  0  0  0  0
  -27.8536  -29.9036  -20.4890 C   0  0  0  0  0  0  0  0  0  0  0  0
  -28.4468  -29.5400  -19.3416 N   0  0  0  0  0  0  0  0  0  0  0  0
  -27.4778  -29.7173  -18.3970 N   0  0  0  0  0  0  0  0  0  0  0  0
  -27.7731  -29.6854  -17.0358 C   0  0  0  0  0  0  0  0  0  0  0  0
  -28.9679  -29.5506  -16.5058 N   0  0  0  0  0  0  0  0  0  0  0  0
  -28.9256  -30.1489  -15.2666 C   0  0  0  0  0  0  0  0  0  0  0  0
  -27.7053  -30.6603  -14.8899 C   0  0  0  0  0  0  0  0  0  0  0  0
  -26.5052  -30.1087  -15.9528 S   0  0  0  0  0  0  0  0  0  0  0  0
  -26.2925  -30.1058  -18.9566 C   0  0  0  0  0  0  0  0  0  0  0  0
  2  1  1  6
  2  3  1  0
  2  4  1  0
  4  5  1  0
  5  6  1  0
  6  7  2  0
  6  8  1  0
  8  9  1  0
  9 10  1  0
 10 11  2  0
 11 12  1  0
 12 13  1  0
 13 14  2  0
 14 15  1  0
 15 16  2  0
 16 17  1  0
 12 18  1  0
 18  9  2  0
 17 13  1  0
M  END
>  <HIPPO Pose ID>  (384) 
134477

>  <fragmenstein_outcome>  (384) 
acceptable

>  <energy_score>  (384) 
-64.735915

>  <distance_score>  (384) 
0.931258

>  <fragmenstein_mode>  (384) 
expansion

>  <HIPPO Compound ID>  (384) 
35052

>  <name>  (384) 
XGNMKLRZPGUESC-ZETCQYMHSA-N

>  <ref_pdb>  (384) 
z0211a

>  <ref_mols>  (384) 
z0211a,z0936a

>  <csv_name>  (384) 
RdRp_knitwork_green_site_rna_tunnel_pure_split4000_batch011.csv

>  <fragmenstein_runtime>  (384) 
4.654049

>  <tags>  (384) 
['Fragmenstein placed']

>  <original ID>  (384) 
XGNMKLRZPGUESC-ZETCQYMHSA-N

>  <fragmenstein_error>  (384) 
None

>  <original SMILES>  (384) 
C[C@H](O)CNC(=O)Nc1cnn(-c2nccs2)c1

>  <inchikey>  (384) 
XGNMKLRZPGUESC-ZETCQYMHSA-N

>  <SLURM_JOB_NAME>  (384) 
BulkDock.place:Flavi_NS5_RdRp:RdRp_knitwork_green_site_rna_tunnel_pure_split4000_batch011

>  <scratch_subdir>  (384) 
/opt/xchem-fragalysis-2/maxwin/BulkDock/SCRATCH/217082/C35052-P102

>  <alias>  (384) 
None

>  <SLURM_JOB_ID>  (384) 
217082

>  <exports>  (384) 
['/opt/xchem-fragalysis-2/maxwin/BulkDock/OUTPUTS/RdRp_knitwork_green_site_rna_tunnel_pure_split4000_batch011_217082.sdf']

$$$$
134488
     RDKit          3D

 18 19  0  0  0  0  0  0  0  0999 V2000
  -21.6572  -33.2278  -24.3414 C   0  0  0  0  0  0  0  0  0  0  0  0
  -22.4577  -32.1253  -23.6768 C   0  0  2  0  0  0  0  0  0  0  0  0
  -22.2028  -32.1816  -22.2605 O   0  0  0  0  0  0  0  0  0  0  0  0
  -23.9705  -32.2304  -23.9949 C   0  0  0  0  0  0  0  0  0  0  0  0
  -24.7025  -31.6919  -22.8947 N   0  0  0  0  0  0  0  0  0  0  0  0
  -26.0603  -30.9418  -22.8618 C   0  0  0  0  0  0  0  0  0  0  0  0
  -26.7302  -30.5922  -23.7148 O   0  0  0  0  0  0  0  0  0  0  0  0
  -26.2286  -30.7979  -21.3429 N   0  0  0  0  0  0  0  0  0  0  0  0
  -27.2600  -30.2976  -20.6141 C   0  0  0  0  0  0  0  0  0  0  0  0
  -28.5590  -29.7963  -20.6945 C   0  0  0  0  0  0  0  0  0  0  0  0
  -29.0906  -29.5658  -19.4671 N   0  0  0  0  0  0  0  0  0  0  0  0
  -28.0828  -29.8578  -18.5969 N   0  0  0  0  0  0  0  0  0  0  0  0
  -28.1221  -29.6979  -17.2032 C   0  0  0  0  0  0  0  0  0  0  0  0
  -29.1659  -29.4736  -16.4376 N   0  0  0  0  0  0  0  0  0  0  0  0
  -28.7434  -29.5452  -15.1191 C   0  0  0  0  0  0  0  0  0  0  0  0
  -27.4057  -29.7677  -14.9037 C   0  0  0  0  0  0  0  0  0  0  0  0
  -26.6030  -29.8558  -16.3794 S   0  0  0  0  0  0  0  0  0  0  0  0
  -27.0152  -30.3449  -19.2747 C   0  0  0  0  0  0  0  0  0  0  0  0
  2  1  1  6
  2  3  1  0
  2  4  1  0
  4  5  1  0
  5  6  1  0
  6  7  2  0
  6  8  1  0
  8  9  1  0
  9 10  1  0
 10 11  2  0
 11 12  1  0
 12 13  1  0
 13 14  2  0
 14 15  1  0
 15 16  2  0
 16 17  1  0
 12 18  1  0
 18  9  2  0
 17 13  1  0
M  END
>  <HIPPO Pose ID>  (385) 
134488

>  <fragmenstein_outcome>  (385) 
acceptable

>  <energy_score>  (385) 
-61.363582

>  <distance_score>  (385) 
0.93042

>  <fragmenstein_mode>  (385) 
expansion

>  <HIPPO Compound ID>  (385) 
35052

>  <name>  (385) 
XGNMKLRZPGUESC-ZETCQYMHSA-N

>  <ref_pdb>  (385) 
z0936a

>  <ref_mols>  (385) 
z0211a,z0936a

>  <csv_name>  (385) 
RdRp_knitwork_green_site_rna_tunnel_pure_split4000_batch011.csv

>  <fragmenstein_runtime>  (385) 
6.653476

>  <tags>  (385) 
['Fragmenstein placed']

>  <original ID>  (385) 
XGNMKLRZPGUESC-ZETCQYMHSA-N

>  <fragmenstein_error>  (385) 
None

>  <original SMILES>  (385) 
C[C@H](O)CNC(=O)Nc1cnn(-c2nccs2)c1

>  <inchikey>  (385) 
XGNMKLRZPGUESC-ZETCQYMHSA-N

>  <SLURM_JOB_NAME>  (385) 
BulkDock.place:Flavi_NS5_RdRp:RdRp_knitwork_green_site_rna_tunnel_pure_split4000_batch011

>  <scratch_subdir>  (385) 
/opt/xchem-fragalysis-2/maxwin/BulkDock/SCRATCH/217082/C35052-P196

>  <alias>  (385) 
None

>  <SLURM_JOB_ID>  (385) 
217082

>  <exports>  (385) 
['/opt/xchem-fragalysis-2/maxwin/BulkDock/OUTPUTS/RdRp_knitwork_green_site_rna_tunnel_pure_split4000_batch011_217082.sdf']

$$$$
134566
     RDKit          3D

 19 20  0  0  0  0  0  0  0  0999 V2000
  -21.1839  -32.8345  -23.8424 C   0  0  0  0  0  0  0  0  0  0  0  0
  -22.3835  -32.7153  -22.9189 C   0  0  1  0  0  0  0  0  0  0  0  0
  -21.9752  -32.0633  -21.7063 O   0  0  0  0  0  0  0  0  0  0  0  0
  -23.5279  -31.9348  -23.5811 C   0  0  0  0  0  0  0  0  0  0  0  0
  -24.4892  -31.5191  -22.6065 N   0  0  0  0  0  0  0  0  0  0  0  0
  -25.9314  -30.9770  -22.7856 C   0  0  0  0  0  0  0  0  0  0  0  0
  -26.5646  -30.8635  -23.7269 O   0  0  0  0  0  0  0  0  0  0  0  0
  -26.2815  -30.6970  -21.3039 N   0  0  0  0  0  0  0  0  0  0  0  0
  -27.4826  -30.3225  -20.7193 C   0  0  0  0  0  0  0  0  0  0  0  0
  -28.6900  -30.1763  -21.3705 C   0  0  0  0  0  0  0  0  0  0  0  0
  -29.8453  -29.9945  -20.6006 C   0  0  0  0  0  0  0  0  0  0  0  0
  -29.7832  -29.9193  -19.1963 C   0  0  0  0  0  0  0  0  0  0  0  0
  -28.5527  -29.9938  -18.5524 C   0  0  0  0  0  0  0  0  0  0  0  0
  -28.3705  -29.8599  -17.1539 N   0  0  0  0  0  0  0  0  0  0  0  0
  -29.3220  -29.6503  -16.1880 C   0  0  0  0  0  0  0  0  0  0  0  0
  -28.6579  -29.5973  -14.9856 C   0  0  0  0  0  0  0  0  0  0  0  0
  -27.3102  -29.7904  -15.2976 C   0  0  0  0  0  0  0  0  0  0  0  0
  -27.1212  -29.9256  -16.6059 N   0  0  0  0  0  0  0  0  0  0  0  0
  -27.4268  -30.2311  -19.3241 C   0  0  0  0  0  0  0  0  0  0  0  0
  2  1  1  6
  2  3  1  0
  2  4  1  0
  4  5  1  0
  5  6  1  0
  6  7  2  0
  6  8  1  0
  8  9  1  0
  9 10  2  0
 10 11  1  0
 11 12  2  0
 12 13  1  0
 13 14  1  0
 14 15  1  0
 15 16  2  0
 16 17  1  0
 17 18  2  0
 13 19  2  0
 19  9  1  0
 18 14  1  0
M  END
>  <HIPPO Pose ID>  (386) 
134566

>  <fragmenstein_outcome>  (386) 
acceptable

>  <energy_score>  (386) 
-50.433259

>  <distance_score>  (386) 
0.814242

>  <fragmenstein_mode>  (386) 
expansion

>  <HIPPO Compound ID>  (386) 
55598

>  <name>  (386) 
QLFFONPVDDKJCE-SNVBAGLBSA-N

>  <ref_pdb>  (386) 
z0936a

>  <ref_mols>  (386) 
z0211a,z0936a

>  <csv_name>  (386) 
RdRp_knitwork_green_site_rna_tunnel_pure_split4000_batch011.csv

>  <fragmenstein_runtime>  (386) 
4.909375

>  <tags>  (386) 
['Fragmenstein placed']

>  <original ID>  (386) 
QLFFONPVDDKJCE-SNVBAGLBSA-N

>  <fragmenstein_error>  (386) 
None

>  <original SMILES>  (386) 
C[C@@H](O)CNC(=O)Nc1cccc(-n2cccn2)c1

>  <inchikey>  (386) 
QLFFONPVDDKJCE-SNVBAGLBSA-N

>  <SLURM_JOB_NAME>  (386) 
BulkDock.place:Flavi_NS5_RdRp:RdRp_knitwork_green_site_rna_tunnel_pure_split4000_batch011

>  <scratch_subdir>  (386) 
/opt/xchem-fragalysis-2/maxwin/BulkDock/SCRATCH/217082/C55598-P196

>  <alias>  (386) 
None

>  <SLURM_JOB_ID>  (386) 
217082

>  <exports>  (386) 
['/opt/xchem-fragalysis-2/maxwin/BulkDock/OUTPUTS/RdRp_knitwork_green_site_rna_tunnel_pure_split4000_batch011_217082.sdf']

$$$$
134697
     RDKit          3D

 20 21  0  0  0  0  0  0  0  0999 V2000
  -25.8269  -30.7094  -14.6554 C   0  0  0  0  0  0  0  0  0  0  0  0
  -26.9981  -30.2165  -15.3980 C   0  0  0  0  0  0  0  0  0  0  0  0
  -28.3647  -30.1209  -15.0666 C   0  0  0  0  0  0  0  0  0  0  0  0
  -28.9976  -29.7614  -16.2373 C   0  0  0  0  0  0  0  0  0  0  0  0
  -28.0170  -29.7683  -17.1950 N   0  0  0  0  0  0  0  0  0  0  0  0
  -28.1271  -29.8677  -18.5910 C   0  0  0  0  0  0  0  0  0  0  0  0
  -29.3451  -29.7903  -19.2572 C   0  0  0  0  0  0  0  0  0  0  0  0
  -29.3535  -29.8415  -20.6492 C   0  0  0  0  0  0  0  0  0  0  0  0
  -28.1690  -30.0752  -21.3543 C   0  0  0  0  0  0  0  0  0  0  0  0
  -26.9861  -30.2964  -20.6674 C   0  0  0  0  0  0  0  0  0  0  0  0
  -25.8216  -30.7192  -21.2787 N   0  0  0  0  0  0  0  0  0  0  0  0
  -25.4732  -30.8643  -22.7801 C   0  0  0  0  0  0  0  0  0  0  0  0
  -26.0734  -30.5832  -23.7043 O   0  0  0  0  0  0  0  0  0  0  0  0
  -24.1192  -31.5939  -22.6537 N   0  0  0  0  0  0  0  0  0  0  0  0
  -23.2986  -32.1966  -23.6512 C   0  0  0  0  0  0  0  0  0  0  0  0
  -21.8226  -32.1414  -23.2690 C   0  0  2  0  0  0  0  0  0  0  0  0
  -21.0236  -33.0106  -24.2175 C   0  0  0  0  0  0  0  0  0  0  0  0
  -21.6295  -32.6247  -21.9344 O   0  0  0  0  0  0  0  0  0  0  0  0
  -26.9527  -30.1454  -19.2970 C   0  0  0  0  0  0  0  0  0  0  0  0
  -26.7919  -29.7957  -16.6387 N   0  0  0  0  0  0  0  0  0  0  0  0
  1  2  1  0
  2  3  1  0
  3  4  2  0
  4  5  1  0
  5  6  1  0
  6  7  2  0
  7  8  1  0
  8  9  2  0
  9 10  1  0
 10 11  1  0
 11 12  1  0
 12 13  2  0
 12 14  1  0
 14 15  1  0
 15 16  1  0
 16 17  1  6
 16 18  1  0
 10 19  2  0
  5 20  1  0
 20  2  2  0
 19  6  1  0
M  END
>  <HIPPO Pose ID>  (387) 
134697

>  <fragmenstein_outcome>  (387) 
acceptable

>  <energy_score>  (387) 
-25.566815

>  <distance_score>  (387) 
0.741055

>  <fragmenstein_mode>  (387) 
expansion

>  <HIPPO Compound ID>  (387) 
55856

>  <name>  (387) 
LYBJDPXLKAGWQA-NSHDSACASA-N

>  <ref_pdb>  (387) 
z0211a

>  <ref_mols>  (387) 
z0211a,z0936a

>  <csv_name>  (387) 
RdRp_knitwork_green_site_rna_tunnel_pure_split4000_batch011.csv

>  <fragmenstein_runtime>  (387) 
2.445407

>  <tags>  (387) 
['Fragmenstein placed']

>  <original ID>  (387) 
LYBJDPXLKAGWQA-NSHDSACASA-N

>  <fragmenstein_error>  (387) 
None

>  <original SMILES>  (387) 
Cc1ccn(-c2cccc(NC(=O)NC[C@H](C)O)c2)n1

>  <inchikey>  (387) 
LYBJDPXLKAGWQA-NSHDSACASA-N

>  <SLURM_JOB_NAME>  (387) 
BulkDock.place:Flavi_NS5_RdRp:RdRp_knitwork_green_site_rna_tunnel_pure_split4000_batch011

>  <scratch_subdir>  (387) 
/opt/xchem-fragalysis-2/maxwin/BulkDock/SCRATCH/217082/C55856-P102

>  <alias>  (387) 
None

>  <SLURM_JOB_ID>  (387) 
217082

>  <exports>  (387) 
['/opt/xchem-fragalysis-2/maxwin/BulkDock/OUTPUTS/RdRp_knitwork_green_site_rna_tunnel_pure_split4000_batch011_217082.sdf']

$$$$
134704
     RDKit          3D

 20 21  0  0  0  0  0  0  0  0999 V2000
  -25.9961  -29.9997  -14.7385 C   0  0  0  0  0  0  0  0  0  0  0  0
  -27.2184  -29.8630  -15.5568 C   0  0  0  0  0  0  0  0  0  0  0  0
  -28.5526  -29.6478  -15.1675 C   0  0  0  0  0  0  0  0  0  0  0  0
  -29.2793  -29.6519  -16.3386 C   0  0  0  0  0  0  0  0  0  0  0  0
  -28.3803  -29.8516  -17.3561 N   0  0  0  0  0  0  0  0  0  0  0  0
  -28.6010  -29.9722  -18.7483 C   0  0  0  0  0  0  0  0  0  0  0  0
  -29.8447  -29.9101  -19.3600 C   0  0  0  0  0  0  0  0  0  0  0  0
  -29.9312  -29.9971  -20.7616 C   0  0  0  0  0  0  0  0  0  0  0  0
  -28.7893  -30.1830  -21.5551 C   0  0  0  0  0  0  0  0  0  0  0  0
  -27.5644  -30.3093  -20.9354 C   0  0  0  0  0  0  0  0  0  0  0  0
  -26.3796  -30.7114  -21.5343 N   0  0  0  0  0  0  0  0  0  0  0  0
  -26.0494  -30.9830  -23.0227 C   0  0  0  0  0  0  0  0  0  0  0  0
  -26.6866  -30.8390  -23.9577 O   0  0  0  0  0  0  0  0  0  0  0  0
  -24.6345  -31.6046  -22.8572 N   0  0  0  0  0  0  0  0  0  0  0  0
  -23.7875  -32.2495  -23.8143 C   0  0  0  0  0  0  0  0  0  0  0  0
  -22.3114  -32.1756  -23.3854 C   0  0  2  0  0  0  0  0  0  0  0  0
  -21.4559  -33.1228  -24.2077 C   0  0  0  0  0  0  0  0  0  0  0  0
  -22.1575  -32.5219  -22.0000 O   0  0  0  0  0  0  0  0  0  0  0  0
  -27.4862  -30.1987  -19.5476 C   0  0  0  0  0  0  0  0  0  0  0  0
  -27.1156  -29.9429  -16.8790 N   0  0  0  0  0  0  0  0  0  0  0  0
  1  2  1  0
  2  3  1  0
  3  4  2  0
  4  5  1  0
  5  6  1  0
  6  7  2  0
  7  8  1  0
  8  9  2  0
  9 10  1  0
 10 11  1  0
 11 12  1  0
 12 13  2  0
 12 14  1  0
 14 15  1  0
 15 16  1  0
 16 17  1  6
 16 18  1  0
 10 19  2  0
  5 20  1  0
 20  2  2  0
 19  6  1  0
M  END
>  <HIPPO Pose ID>  (388) 
134704

>  <fragmenstein_outcome>  (388) 
acceptable

>  <energy_score>  (388) 
-29.020459

>  <distance_score>  (388) 
0.833651

>  <fragmenstein_mode>  (388) 
expansion

>  <HIPPO Compound ID>  (388) 
55856

>  <name>  (388) 
LYBJDPXLKAGWQA-NSHDSACASA-N

>  <ref_pdb>  (388) 
z0936a

>  <ref_mols>  (388) 
z0211a,z0936a

>  <csv_name>  (388) 
RdRp_knitwork_green_site_rna_tunnel_pure_split4000_batch011.csv

>  <fragmenstein_runtime>  (388) 
4.29716

>  <tags>  (388) 
['Fragmenstein placed']

>  <original ID>  (388) 
LYBJDPXLKAGWQA-NSHDSACASA-N

>  <fragmenstein_error>  (388) 
None

>  <original SMILES>  (388) 
Cc1ccn(-c2cccc(NC(=O)NC[C@H](C)O)c2)n1

>  <inchikey>  (388) 
LYBJDPXLKAGWQA-NSHDSACASA-N

>  <SLURM_JOB_NAME>  (388) 
BulkDock.place:Flavi_NS5_RdRp:RdRp_knitwork_green_site_rna_tunnel_pure_split4000_batch011

>  <scratch_subdir>  (388) 
/opt/xchem-fragalysis-2/maxwin/BulkDock/SCRATCH/217082/C55856-P196

>  <alias>  (388) 
None

>  <SLURM_JOB_ID>  (388) 
217082

>  <exports>  (388) 
['/opt/xchem-fragalysis-2/maxwin/BulkDock/OUTPUTS/RdRp_knitwork_green_site_rna_tunnel_pure_split4000_batch011_217082.sdf']

$$$$
134819
     RDKit          3D

 18 19  0  0  0  0  0  0  0  0999 V2000
  -21.2659  -33.0565  -23.9986 C   0  0  0  0  0  0  0  0  0  0  0  0
  -21.9929  -32.0097  -23.1727 C   0  0  2  0  0  0  0  0  0  0  0  0
  -21.5462  -32.1262  -21.8204 O   0  0  0  0  0  0  0  0  0  0  0  0
  -23.5014  -32.2329  -23.2688 C   0  0  0  0  0  0  0  0  0  0  0  0
  -24.2650  -31.6225  -22.2149 N   0  0  0  0  0  0  0  0  0  0  0  0
  -25.6168  -30.8682  -22.2635 C   0  0  0  0  0  0  0  0  0  0  0  0
  -26.2600  -30.5686  -23.1534 O   0  0  0  0  0  0  0  0  0  0  0  0
  -25.8863  -30.7317  -20.7399 N   0  0  0  0  0  0  0  0  0  0  0  0
  -27.0202  -30.2934  -20.0605 C   0  0  0  0  0  0  0  0  0  0  0  0
  -28.2255  -30.1214  -20.7462 C   0  0  0  0  0  0  0  0  0  0  0  0
  -29.4000  -29.9038  -20.0394 C   0  0  0  0  0  0  0  0  0  0  0  0
  -29.3572  -29.8173  -18.6517 C   0  0  0  0  0  0  0  0  0  0  0  0
  -28.1337  -29.8989  -17.9704 C   0  0  0  0  0  0  0  0  0  0  0  0
  -28.0683  -29.8064  -16.5760 C   0  0  0  0  0  0  0  0  0  0  0  0
  -26.8471  -29.9792  -15.9351 C   0  0  0  0  0  0  0  0  0  0  0  0
  -25.7256  -30.2154  -16.7074 C   0  0  0  0  0  0  0  0  0  0  0  0
  -25.7480  -30.2918  -18.0505 N   0  0  0  0  0  0  0  0  0  0  0  0
  -26.9378  -30.1488  -18.6768 C   0  0  0  0  0  0  0  0  0  0  0  0
  2  1  1  6
  2  3  1  0
  2  4  1  0
  4  5  1  0
  5  6  1  0
  6  7  2  0
  6  8  1  0
  8  9  1  0
  9 10  2  0
 10 11  1  0
 11 12  2  0
 12 13  1  0
 13 14  2  0
 14 15  1  0
 15 16  2  0
 16 17  1  0
 17 18  2  0
 18  9  1  0
 18 13  1  0
M  END
>  <HIPPO Pose ID>  (389) 
134819

>  <fragmenstein_outcome>  (389) 
acceptable

>  <energy_score>  (389) 
-21.948084

>  <distance_score>  (389) 
0.963034

>  <fragmenstein_mode>  (389) 
expansion

>  <HIPPO Compound ID>  (389) 
33434

>  <name>  (389) 
SHENAZADMNUPGS-VIFPVBQESA-N

>  <ref_pdb>  (389) 
z0211a

>  <ref_mols>  (389) 
z0211a,z1040a

>  <csv_name>  (389) 
RdRp_knitwork_green_site_rna_tunnel_pure_split4000_batch004.csv

>  <fragmenstein_runtime>  (389) 
4.497667

>  <tags>  (389) 
['Fragmenstein placed']

>  <original ID>  (389) 
SHENAZADMNUPGS-VIFPVBQESA-N

>  <fragmenstein_error>  (389) 
None

>  <original SMILES>  (389) 
C[C@H](O)CNC(=O)Nc1cccc2cccnc12

>  <inchikey>  (389) 
SHENAZADMNUPGS-VIFPVBQESA-N

>  <SLURM_JOB_NAME>  (389) 
BulkDock.place:Flavi_NS5_RdRp:RdRp_knitwork_green_site_rna_tunnel_pure_split4000_batch004

>  <scratch_subdir>  (389) 
/opt/xchem-fragalysis-2/maxwin/BulkDock/SCRATCH/217075/C33434-P102

>  <alias>  (389) 
None

>  <SLURM_JOB_ID>  (389) 
217075

>  <exports>  (389) 
['/opt/xchem-fragalysis-2/maxwin/BulkDock/OUTPUTS/RdRp_knitwork_green_site_rna_tunnel_pure_split4000_batch004_217075.sdf']

$$$$
134826
     RDKit          3D

 18 19  0  0  0  0  0  0  0  0999 V2000
  -21.5134  -33.2798  -23.8934 C   0  0  0  0  0  0  0  0  0  0  0  0
  -22.3341  -32.1165  -23.3744 C   0  0  2  0  0  0  0  0  0  0  0  0
  -21.9467  -31.8743  -22.0171 O   0  0  0  0  0  0  0  0  0  0  0  0
  -23.8344  -32.4182  -23.4865 C   0  0  0  0  0  0  0  0  0  0  0  0
  -24.6071  -31.8503  -22.4176 N   0  0  0  0  0  0  0  0  0  0  0  0
  -26.0407  -31.2619  -22.4183 C   0  0  0  0  0  0  0  0  0  0  0  0
  -26.7633  -31.0835  -23.2817 O   0  0  0  0  0  0  0  0  0  0  0  0
  -26.2292  -31.0463  -20.8893 N   0  0  0  0  0  0  0  0  0  0  0  0
  -27.3567  -30.6673  -20.1640 C   0  0  0  0  0  0  0  0  0  0  0  0
  -28.5693  -30.4060  -20.8038 C   0  0  0  0  0  0  0  0  0  0  0  0
  -29.7074  -30.1398  -20.0541 C   0  0  0  0  0  0  0  0  0  0  0  0
  -29.6280  -30.1360  -18.6655 C   0  0  0  0  0  0  0  0  0  0  0  0
  -28.4002  -30.3605  -18.0230 C   0  0  0  0  0  0  0  0  0  0  0  0
  -28.3024  -30.3663  -16.6293 C   0  0  0  0  0  0  0  0  0  0  0  0
  -27.0698  -30.5895  -16.0296 C   0  0  0  0  0  0  0  0  0  0  0  0
  -25.9682  -30.7838  -16.8398 C   0  0  0  0  0  0  0  0  0  0  0  0
  -26.0234  -30.8060  -18.1846 N   0  0  0  0  0  0  0  0  0  0  0  0
  -27.2305  -30.6082  -18.7728 C   0  0  0  0  0  0  0  0  0  0  0  0
  2  1  1  1
  2  3  1  0
  2  4  1  0
  4  5  1  0
  5  6  1  0
  6  7  2  0
  6  8  1  0
  8  9  1  0
  9 10  2  0
 10 11  1  0
 11 12  2  0
 12 13  1  0
 13 14  2  0
 14 15  1  0
 15 16  2  0
 16 17  1  0
 17 18  2  0
 18  9  1  0
 18 13  1  0
M  END
>  <HIPPO Pose ID>  (390) 
134826

>  <fragmenstein_outcome>  (390) 
acceptable

>  <energy_score>  (390) 
-22.097794

>  <distance_score>  (390) 
0.949588

>  <fragmenstein_mode>  (390) 
expansion

>  <HIPPO Compound ID>  (390) 
33434

>  <name>  (390) 
SHENAZADMNUPGS-VIFPVBQESA-N

>  <ref_pdb>  (390) 
z1040a

>  <ref_mols>  (390) 
z0211a,z1040a

>  <csv_name>  (390) 
RdRp_knitwork_green_site_rna_tunnel_pure_split4000_batch004.csv

>  <fragmenstein_runtime>  (390) 
2.465154

>  <tags>  (390) 
['Fragmenstein placed']

>  <original ID>  (390) 
SHENAZADMNUPGS-VIFPVBQESA-N

>  <fragmenstein_error>  (390) 
None

>  <original SMILES>  (390) 
C[C@H](O)CNC(=O)Nc1cccc2cccnc12

>  <inchikey>  (390) 
SHENAZADMNUPGS-VIFPVBQESA-N

>  <SLURM_JOB_NAME>  (390) 
BulkDock.place:Flavi_NS5_RdRp:RdRp_knitwork_green_site_rna_tunnel_pure_split4000_batch004

>  <scratch_subdir>  (390) 
/opt/xchem-fragalysis-2/maxwin/BulkDock/SCRATCH/217075/C33434-P208

>  <alias>  (390) 
None

>  <SLURM_JOB_ID>  (390) 
217075

>  <exports>  (390) 
['/opt/xchem-fragalysis-2/maxwin/BulkDock/OUTPUTS/RdRp_knitwork_green_site_rna_tunnel_pure_split4000_batch004_217075.sdf']

$$$$
134853
     RDKit          3D

 20 21  0  0  0  0  0  0  0  0999 V2000
  -24.1058  -31.1847  -16.5651 C   0  0  0  0  0  0  0  0  0  0  0  0
  -24.9758  -30.1658  -16.0946 O   0  0  0  0  0  0  0  0  0  0  0  0
  -26.1365  -30.1194  -16.8225 C   0  0  0  0  0  0  0  0  0  0  0  0
  -27.3005  -29.8716  -16.1216 C   0  0  0  0  0  0  0  0  0  0  0  0
  -28.4853  -29.7793  -16.8353 C   0  0  0  0  0  0  0  0  0  0  0  0
  -28.4552  -29.9214  -18.2259 C   0  0  0  0  0  0  0  0  0  0  0  0
  -29.6309  -29.8802  -18.9833 C   0  0  0  0  0  0  0  0  0  0  0  0
  -29.5730  -29.9330  -20.3698 C   0  0  0  0  0  0  0  0  0  0  0  0
  -28.3471  -30.1089  -20.9978 C   0  0  0  0  0  0  0  0  0  0  0  0
  -27.1908  -30.2826  -20.2390 C   0  0  0  0  0  0  0  0  0  0  0  0
  -26.0086  -30.6937  -20.8523 N   0  0  0  0  0  0  0  0  0  0  0  0
  -25.6463  -30.8162  -22.3597 C   0  0  0  0  0  0  0  0  0  0  0  0
  -26.2422  -30.5251  -23.2850 O   0  0  0  0  0  0  0  0  0  0  0  0
  -24.2836  -31.5425  -22.2345 N   0  0  0  0  0  0  0  0  0  0  0  0
  -23.4465  -32.1309  -23.2440 C   0  0  0  0  0  0  0  0  0  0  0  0
  -21.9466  -32.0105  -22.9807 C   0  0  2  0  0  0  0  0  0  0  0  0
  -21.1960  -33.0616  -23.7812 C   0  0  0  0  0  0  0  0  0  0  0  0
  -21.6569  -32.2198  -21.5966 O   0  0  0  0  0  0  0  0  0  0  0  0
  -27.2105  -30.1477  -18.8544 C   0  0  0  0  0  0  0  0  0  0  0  0
  -26.0647  -30.2558  -18.1574 N   0  0  0  0  0  0  0  0  0  0  0  0
  1  2  1  0
  2  3  1  0
  3  4  2  0
  4  5  1  0
  5  6  2  0
  6  7  1  0
  7  8  2  0
  8  9  1  0
  9 10  2  0
 10 11  1  0
 11 12  1  0
 12 13  2  0
 12 14  1  0
 14 15  1  0
 15 16  1  0
 16 17  1  6
 16 18  1  0
 10 19  1  0
 19 20  2  0
 20  3  1  0
 19  6  1  0
M  END
>  <HIPPO Pose ID>  (391) 
134853

>  <fragmenstein_outcome>  (391) 
acceptable

>  <energy_score>  (391) 
-43.014394

>  <distance_score>  (391) 
0.64757

>  <fragmenstein_mode>  (391) 
expansion

>  <HIPPO Compound ID>  (391) 
33585

>  <name>  (391) 
LFOBNNHSZCAMLP-VIFPVBQESA-N

>  <ref_pdb>  (391) 
z0211a

>  <ref_mols>  (391) 
z0211a,z1040a

>  <csv_name>  (391) 
RdRp_knitwork_green_site_rna_tunnel_pure_split4000_batch004.csv

>  <fragmenstein_runtime>  (391) 
4.426451

>  <tags>  (391) 
['Fragmenstein placed']

>  <original ID>  (391) 
LFOBNNHSZCAMLP-VIFPVBQESA-N

>  <fragmenstein_error>  (391) 
None

>  <original SMILES>  (391) 
COc1ccc2cccc(NC(=O)NC[C@H](C)O)c2n1

>  <inchikey>  (391) 
LFOBNNHSZCAMLP-VIFPVBQESA-N

>  <SLURM_JOB_NAME>  (391) 
BulkDock.place:Flavi_NS5_RdRp:RdRp_knitwork_green_site_rna_tunnel_pure_split4000_batch004

>  <scratch_subdir>  (391) 
/opt/xchem-fragalysis-2/maxwin/BulkDock/SCRATCH/217075/C33585-P102

>  <alias>  (391) 
None

>  <SLURM_JOB_ID>  (391) 
217075

>  <exports>  (391) 
['/opt/xchem-fragalysis-2/maxwin/BulkDock/OUTPUTS/RdRp_knitwork_green_site_rna_tunnel_pure_split4000_batch004_217075.sdf']

$$$$
134866
     RDKit          3D

 20 21  0  0  0  0  0  0  0  0999 V2000
  -24.0355  -30.7441  -16.8404 C   0  0  0  0  0  0  0  0  0  0  0  0
  -25.2335  -30.8589  -16.0877 O   0  0  0  0  0  0  0  0  0  0  0  0
  -26.3671  -30.7006  -16.8459 C   0  0  0  0  0  0  0  0  0  0  0  0
  -27.5503  -30.4802  -16.1668 C   0  0  0  0  0  0  0  0  0  0  0  0
  -28.7047  -30.2621  -16.9083 C   0  0  0  0  0  0  0  0  0  0  0  0
  -28.6392  -30.3022  -18.3048 C   0  0  0  0  0  0  0  0  0  0  0  0
  -29.7650  -30.0837  -19.1118 C   0  0  0  0  0  0  0  0  0  0  0  0
  -29.6536  -30.1249  -20.4997 C   0  0  0  0  0  0  0  0  0  0  0  0
  -28.4368  -30.4572  -21.0871 C   0  0  0  0  0  0  0  0  0  0  0  0
  -27.3364  -30.7315  -20.2835 C   0  0  0  0  0  0  0  0  0  0  0  0
  -26.1386  -31.2180  -20.8020 N   0  0  0  0  0  0  0  0  0  0  0  0
  -25.7890  -31.7126  -22.2318 C   0  0  0  0  0  0  0  0  0  0  0  0
  -26.4150  -31.7138  -23.1842 O   0  0  0  0  0  0  0  0  0  0  0  0
  -24.3736  -32.2868  -21.9620 N   0  0  0  0  0  0  0  0  0  0  0  0
  -23.5040  -33.0597  -22.8098 C   0  0  0  0  0  0  0  0  0  0  0  0
  -22.3595  -32.1998  -23.3401 C   0  0  2  0  0  0  0  0  0  0  0  0
  -21.4172  -33.0054  -24.2107 C   0  0  0  0  0  0  0  0  0  0  0  0
  -21.5991  -31.6799  -22.2436 O   0  0  0  0  0  0  0  0  0  0  0  0
  -27.3969  -30.5984  -18.8987 C   0  0  0  0  0  0  0  0  0  0  0  0
  -26.2751  -30.7894  -18.1803 N   0  0  0  0  0  0  0  0  0  0  0  0
  1  2  1  0
  2  3  1  0
  3  4  2  0
  4  5  1  0
  5  6  2  0
  6  7  1  0
  7  8  2  0
  8  9  1  0
  9 10  2  0
 10 11  1  0
 11 12  1  0
 12 13  2  0
 12 14  1  0
 14 15  1  0
 15 16  1  0
 16 17  1  6
 16 18  1  0
 10 19  1  0
 19 20  2  0
 20  3  1  0
 19  6  1  0
M  END
>  <HIPPO Pose ID>  (392) 
134866

>  <fragmenstein_outcome>  (392) 
acceptable

>  <energy_score>  (392) 
-46.998255

>  <distance_score>  (392) 
0.714124

>  <fragmenstein_mode>  (392) 
expansion

>  <HIPPO Compound ID>  (392) 
33585

>  <name>  (392) 
LFOBNNHSZCAMLP-VIFPVBQESA-N

>  <ref_pdb>  (392) 
z1040a

>  <ref_mols>  (392) 
z0211a,z1040a

>  <csv_name>  (392) 
RdRp_knitwork_green_site_rna_tunnel_pure_split4000_batch004.csv

>  <fragmenstein_runtime>  (392) 
3.171661

>  <tags>  (392) 
['Fragmenstein placed']

>  <original ID>  (392) 
LFOBNNHSZCAMLP-VIFPVBQESA-N

>  <fragmenstein_error>  (392) 
None

>  <original SMILES>  (392) 
COc1ccc2cccc(NC(=O)NC[C@H](C)O)c2n1

>  <inchikey>  (392) 
LFOBNNHSZCAMLP-VIFPVBQESA-N

>  <SLURM_JOB_NAME>  (392) 
BulkDock.place:Flavi_NS5_RdRp:RdRp_knitwork_green_site_rna_tunnel_pure_split4000_batch004

>  <scratch_subdir>  (392) 
/opt/xchem-fragalysis-2/maxwin/BulkDock/SCRATCH/217075/C33585-P208

>  <alias>  (392) 
None

>  <SLURM_JOB_ID>  (392) 
217075

>  <exports>  (392) 
['/opt/xchem-fragalysis-2/maxwin/BulkDock/OUTPUTS/RdRp_knitwork_green_site_rna_tunnel_pure_split4000_batch004_217075.sdf']

$$$$
135532
     RDKit          3D

 22 23  0  0  0  0  0  0  0  0999 V2000
  -30.4635  -29.3963  -20.8742 C   0  0  0  0  0  0  0  0  0  0  0  0
  -29.1440  -29.1707  -20.1178 C   0  0  0  0  0  0  0  0  0  0  0  0
  -28.6410  -30.4465  -19.4513 N   0  0  0  0  0  0  0  0  0  0  0  0
  -29.4752  -29.9085  -18.2885 C   0  0  0  0  0  0  0  0  0  0  0  0
  -28.6457  -29.1272  -17.2354 C   0  0  0  0  0  0  0  0  0  0  0  0
  -27.8015  -30.0625  -16.3741 C   0  0  0  0  0  0  0  0  0  0  0  0
  -26.4700  -29.5951  -15.8108 C   0  0  0  0  0  0  0  0  0  0  0  0
  -25.7794  -28.7517  -16.7121 O   0  0  0  0  0  0  0  0  0  0  0  0
  -27.2133  -30.5594  -19.6100 C   0  0  0  0  0  0  0  0  0  0  0  0
  -26.3146  -30.1751  -18.9043 O   0  0  0  0  0  0  0  0  0  0  0  0
  -26.8947  -31.2399  -20.9459 C   0  0  0  0  0  0  0  0  0  0  0  0
  -25.4859  -31.7339  -21.0560 C   0  0  0  0  0  0  0  0  0  0  0  0
  -24.6458  -32.1606  -20.0437 C   0  0  0  0  0  0  0  0  0  0  0  0
  -23.0964  -32.5039  -20.6659 S   0  0  0  0  0  0  0  0  0  0  0  0
  -23.6807  -32.2152  -22.2508 C   0  0  0  0  0  0  0  0  0  0  0  0
  -22.8159  -32.4651  -23.2942 N   0  0  0  0  0  0  0  0  0  0  0  0
  -21.3993  -32.7199  -23.2212 C   0  0  0  0  0  0  0  0  0  0  0  0
  -20.9396  -32.6830  -24.6614 C   0  0  0  0  0  0  0  0  0  0  0  0
  -22.1572  -33.1472  -25.4349 C   0  0  0  0  0  0  0  0  0  0  0  0
  -23.3151  -32.6927  -24.5744 C   0  0  0  0  0  0  0  0  0  0  0  0
  -24.4639  -32.6375  -24.9910 O   0  0  0  0  0  0  0  0  0  0  0  0
  -24.9305  -31.8135  -22.3272 N   0  0  0  0  0  0  0  0  0  0  0  0
  1  2  1  0
  2  3  1  0
  3  4  1  0
  4  5  1  0
  5  6  1  0
  6  7  1  0
  7  8  1  0
  3  9  1  0
  9 10  2  0
  9 11  1  0
 11 12  1  0
 12 13  2  0
 13 14  1  0
 14 15  1  0
 15 16  1  0
 16 17  1  0
 17 18  1  0
 18 19  1  0
 19 20  1  0
 20 21  2  0
 15 22  2  0
 22 12  1  0
 20 16  1  0
M  END
>  <HIPPO Pose ID>  (393) 
135532

>  <fragmenstein_outcome>  (393) 
acceptable

>  <energy_score>  (393) 
-12.903916

>  <distance_score>  (393) 
0.981242

>  <fragmenstein_mode>  (393) 
expansion

>  <HIPPO Compound ID>  (393) 
26871

>  <name>  (393) 
JVCAFUIRTQOPKA-UHFFFAOYSA-N

>  <ref_pdb>  (393) 
z1018a

>  <ref_mols>  (393) 
z0496a,z1018a

>  <csv_name>  (393) 
RdRp_knitwork_green_site_rna_tunnel_pure_split4000_batch012.csv

>  <fragmenstein_runtime>  (393) 
13.9339

>  <tags>  (393) 
['Fragmenstein placed']

>  <original ID>  (393) 
JVCAFUIRTQOPKA-UHFFFAOYSA-N

>  <fragmenstein_error>  (393) 
None

>  <original SMILES>  (393) 
CCN(CCCCO)C(=O)Cc1csc(N2CCCC2=O)n1

>  <inchikey>  (393) 
JVCAFUIRTQOPKA-UHFFFAOYSA-N

>  <SLURM_JOB_NAME>  (393) 
BulkDock.place:Flavi_NS5_RdRp:RdRp_knitwork_green_site_rna_tunnel_pure_split4000_batch012

>  <scratch_subdir>  (393) 
/opt/xchem-fragalysis-2/maxwin/BulkDock/SCRATCH/217083/C26871-P206

>  <alias>  (393) 
None

>  <SLURM_JOB_ID>  (393) 
217083

>  <exports>  (393) 
['/opt/xchem-fragalysis-2/maxwin/BulkDock/OUTPUTS/RdRp_knitwork_green_site_rna_tunnel_pure_split4000_batch012_217083.sdf']

$$$$
135874
     RDKit          3D

 23 25  0  0  0  0  0  0  0  0999 V2000
  -25.1238  -34.6316  -21.2314 C   0  0  0  0  0  0  0  0  0  0  0  0
  -25.3764  -33.1325  -21.3619 C   0  0  0  0  0  0  0  0  0  0  0  0
  -24.1031  -32.2676  -21.4114 C   0  0  1  0  0  0  0  0  0  0  0  0
  -23.5881  -32.1757  -19.9566 C   0  0  0  0  0  0  0  0  0  0  0  0
  -22.9506  -33.0349  -19.3609 O   0  0  0  0  0  0  0  0  0  0  0  0
  -24.0366  -31.0233  -19.4001 O   0  0  0  0  0  0  0  0  0  0  0  0
  -24.4712  -31.0536  -18.0313 C   0  0  0  0  0  0  0  0  0  0  0  0
  -25.9664  -30.7797  -18.0254 C   0  0  0  0  0  0  0  0  0  0  0  0
  -26.6984  -30.7987  -16.8458 C   0  0  0  0  0  0  0  0  0  0  0  0
  -28.0809  -30.6305  -16.9188 C   0  0  0  0  0  0  0  0  0  0  0  0
  -28.6997  -30.4479  -18.1642 C   0  0  0  0  0  0  0  0  0  0  0  0
  -30.0893  -30.3235  -18.3052 C   0  0  0  0  0  0  0  0  0  0  0  0
  -30.6569  -30.1474  -19.5677 C   0  0  0  0  0  0  0  0  0  0  0  0
  -29.8421  -30.0589  -20.6866 C   0  0  0  0  0  0  0  0  0  0  0  0
  -28.4636  -30.1969  -20.5466 C   0  0  0  0  0  0  0  0  0  0  0  0
  -27.8807  -30.4003  -19.3045 C   0  0  0  0  0  0  0  0  0  0  0  0
  -26.5539  -30.5562  -19.2319 N   0  0  0  0  0  0  0  0  0  0  0  0
  -23.1728  -32.7090  -22.4584 N   0  0  0  0  0  0  0  0  0  0  0  0
  -21.7714  -32.9559  -22.2337 C   0  0  0  0  0  0  0  0  0  0  0  0
  -21.1751  -32.9047  -23.6283 C   0  0  0  0  0  0  0  0  0  0  0  0
  -22.3125  -33.3337  -24.5384 C   0  0  0  0  0  0  0  0  0  0  0  0
  -23.5200  -32.8286  -23.7986 C   0  0  0  0  0  0  0  0  0  0  0  0
  -24.6105  -32.6335  -24.3085 O   0  0  0  0  0  0  0  0  0  0  0  0
  1  2  1  0
  3  2  1  1
  3  4  1  0
  4  5  2  0
  4  6  1  0
  6  7  1  0
  7  8  1  0
  8  9  2  0
  9 10  1  0
 10 11  2  0
 11 12  1  0
 12 13  2  0
 13 14  1  0
 14 15  2  0
 15 16  1  0
 16 17  2  0
  3 18  1  0
 18 19  1  0
 19 20  1  0
 20 21  1  0
 21 22  1  0
 22 23  2  0
 17  8  1  0
 22 18  1  0
 16 11  1  0
M  END
>  <HIPPO Pose ID>  (394) 
135874

>  <fragmenstein_outcome>  (394) 
acceptable

>  <energy_score>  (394) 
-63.516294

>  <distance_score>  (394) 
0.996221

>  <fragmenstein_mode>  (394) 
expansion

>  <HIPPO Compound ID>  (394) 
63779

>  <name>  (394) 
OYJLOKRLNBTYIZ-INIZCTEOSA-N

>  <ref_pdb>  (394) 
z1040a

>  <ref_mols>  (394) 
z1018a,z1040a

>  <csv_name>  (394) 
RdRp_knitwork_green_site_rna_tunnel_pure_split4000_batch000.csv

>  <fragmenstein_runtime>  (394) 
5.101742

>  <tags>  (394) 
['Fragmenstein placed']

>  <original ID>  (394) 
OYJLOKRLNBTYIZ-INIZCTEOSA-N

>  <fragmenstein_error>  (394) 
None

>  <original SMILES>  (394) 
CC[C@@H](C(=O)OCc1ccc2ccccc2n1)N1CCCC1=O

>  <inchikey>  (394) 
OYJLOKRLNBTYIZ-INIZCTEOSA-N

>  <SLURM_JOB_NAME>  (394) 
BulkDock.place:Flavi_NS5_RdRp:RdRp_knitwork_green_site_rna_tunnel_pure_split4000_batch000

>  <scratch_subdir>  (394) 
/opt/xchem-fragalysis-2/maxwin/BulkDock/SCRATCH/217071/C63779-P208

>  <alias>  (394) 
None

>  <SLURM_JOB_ID>  (394) 
217071

>  <exports>  (394) 
['/opt/xchem-fragalysis-2/maxwin/BulkDock/OUTPUTS/RdRp_knitwork_green_site_rna_tunnel_pure_split4000_batch000_217071.sdf']

$$$$
136289
     RDKit          3D

 20 22  0  0  0  0  0  0  0  0999 V2000
  -24.7468  -34.2180  -23.7502 C   0  0  0  0  0  0  0  0  0  0  0  0
  -23.4051  -33.5613  -23.4116 C   0  0  1  0  0  0  0  0  0  0  0  0
  -23.5592  -32.1202  -23.1283 N   0  0  0  0  0  0  0  0  0  0  0  0
  -24.3947  -31.8856  -21.9489 C   0  0  0  0  0  0  0  0  0  0  0  0
  -24.0489  -30.5492  -21.3001 C   0  0  0  0  0  0  0  0  0  0  0  0
  -25.1455  -30.1091  -20.3356 C   0  0  2  0  0  0  0  0  0  0  0  0
  -25.5219  -31.1628  -19.2769 C   0  0  0  0  0  0  0  0  0  0  0  0
  -26.6434  -30.7154  -18.5007 O   0  0  0  0  0  0  0  0  0  0  0  0
  -27.7572  -30.4350  -19.3576 C   0  0  0  0  0  0  0  0  0  0  0  0
  -27.3755  -29.3383  -20.3379 C   0  0  0  0  0  0  0  0  0  0  0  0
  -26.2866  -29.7780  -21.1514 O   0  0  0  0  0  0  0  0  0  0  0  0
  -22.6313  -34.2503  -22.3182 C   0  0  0  0  0  0  0  0  0  0  0  0
  -22.7982  -35.5544  -21.8813 C   0  0  0  0  0  0  0  0  0  0  0  0
  -21.8812  -35.8847  -20.9420 O   0  0  0  0  0  0  0  0  0  0  0  0
  -21.1027  -34.7929  -20.7418 C   0  0  0  0  0  0  0  0  0  0  0  0
  -20.0179  -34.7303  -19.8707 C   0  0  0  0  0  0  0  0  0  0  0  0
  -19.3337  -33.5119  -19.8077 C   0  0  0  0  0  0  0  0  0  0  0  0
  -19.7348  -32.4200  -20.5789 C   0  0  0  0  0  0  0  0  0  0  0  0
  -20.8280  -32.5207  -21.4501 C   0  0  0  0  0  0  0  0  0  0  0  0
  -21.5300  -33.7413  -21.5426 C   0  0  0  0  0  0  0  0  0  0  0  0
  2  1  1  1
  2  3  1  0
  3  4  1  0
  4  5  1  0
  6  5  1  6
  6  7  1  0
  7  8  1  0
  8  9  1  0
  9 10  1  0
 10 11  1  0
  2 12  1  0
 12 13  2  0
 13 14  1  0
 14 15  1  0
 15 16  2  0
 16 17  1  0
 17 18  2  0
 18 19  1  0
 19 20  2  0
 11  6  1  0
 20 12  1  0
 20 15  1  0
M  END
>  <HIPPO Pose ID>  (395) 
136289

>  <fragmenstein_outcome>  (395) 
acceptable

>  <energy_score>  (395) 
-42.62793

>  <distance_score>  (395) 
0.977256

>  <fragmenstein_mode>  (395) 
expansion

>  <HIPPO Compound ID>  (395) 
27088

>  <name>  (395) 
LKUMVTLLZXTOIO-CHWSQXEVSA-N

>  <ref_pdb>  (395) 
3vws-b

>  <ref_mols>  (395) 
z0521a,3vws-b

>  <csv_name>  (395) 
RdRp_knitwork_green_site_rna_tunnel_pure_split4000_batch000.csv

>  <fragmenstein_runtime>  (395) 
8.374519

>  <tags>  (395) 
['Fragmenstein placed']

>  <original ID>  (395) 
LKUMVTLLZXTOIO-CHWSQXEVSA-N

>  <fragmenstein_error>  (395) 
None

>  <original SMILES>  (395) 
C[C@@H](NCC[C@@H]1COCCO1)c1coc2ccccc12

>  <inchikey>  (395) 
LKUMVTLLZXTOIO-CHWSQXEVSA-N

>  <SLURM_JOB_NAME>  (395) 
BulkDock.place:Flavi_NS5_RdRp:RdRp_knitwork_green_site_rna_tunnel_pure_split4000_batch000

>  <scratch_subdir>  (395) 
/opt/xchem-fragalysis-2/maxwin/BulkDock/SCRATCH/217071/C27088-P217

>  <alias>  (395) 
None

>  <SLURM_JOB_ID>  (395) 
217071

>  <exports>  (395) 
['/opt/xchem-fragalysis-2/maxwin/BulkDock/OUTPUTS/RdRp_knitwork_green_site_rna_tunnel_pure_split4000_batch000_217071.sdf']

$$$$
136355
     RDKit          3D

 21 23  0  0  0  0  0  0  0  0999 V2000
  -26.2428  -30.0866  -15.4827 C   0  0  0  0  0  0  0  0  0  0  0  0
  -27.2998  -30.0592  -16.5394 C   0  0  0  0  0  0  0  0  0  0  0  0
  -28.6003  -30.4237  -16.2494 C   0  0  0  0  0  0  0  0  0  0  0  0
  -29.5912  -30.4888  -17.1640 N   0  0  0  0  0  0  0  0  0  0  0  0
  -29.2687  -30.3655  -18.4612 C   0  0  0  0  0  0  0  0  0  0  0  0
  -30.2452  -30.5004  -19.4396 C   0  0  0  0  0  0  0  0  0  0  0  0
  -29.9534  -30.4462  -20.7977 C   0  0  0  0  0  0  0  0  0  0  0  0
  -28.6391  -30.3391  -21.1926 C   0  0  0  0  0  0  0  0  0  0  0  0
  -27.6429  -30.1988  -20.2317 C   0  0  0  0  0  0  0  0  0  0  0  0
  -27.9644  -30.0807  -18.8689 C   0  0  0  0  0  0  0  0  0  0  0  0
  -27.0545  -29.6989  -17.8638 C   0  0  0  0  0  0  0  0  0  0  0  0
  -25.9786  -28.7009  -18.1396 C   0  0  0  0  0  0  0  0  0  0  0  0
  -24.9499  -28.5909  -17.4916 O   0  0  0  0  0  0  0  0  0  0  0  0
  -26.3400  -27.8592  -19.1551 O   0  0  0  0  0  0  0  0  0  0  0  0
  -25.3288  -26.8952  -19.4791 C   0  0  0  0  0  0  0  0  0  0  0  0
  -25.5380  -26.1781  -20.8075 C   0  0  0  0  0  0  0  0  0  0  0  0
  -25.5627  -27.0967  -21.9697 C   0  0  0  0  0  0  0  0  0  0  0  0
  -26.4449  -28.1163  -22.1967 C   0  0  0  0  0  0  0  0  0  0  0  0
  -26.2171  -28.9189  -23.2838 N   0  0  0  0  0  0  0  0  0  0  0  0
  -25.2201  -28.4000  -23.9649 C   0  0  0  0  0  0  0  0  0  0  0  0
  -24.5417  -26.9621  -23.3261 S   0  0  0  0  0  0  0  0  0  0  0  0
  1  2  1  0
  2  3  2  0
  3  4  1  0
  4  5  2  0
  5  6  1  0
  6  7  2  0
  7  8  1  0
  8  9  2  0
  9 10  1  0
 10 11  2  0
 11 12  1  0
 12 13  2  0
 12 14  1  0
 14 15  1  0
 15 16  1  0
 16 17  1  0
 17 18  2  0
 18 19  1  0
 19 20  2  0
 20 21  1  0
 11  2  1  0
 21 17  1  0
 10  5  1  0
M  END
>  <HIPPO Pose ID>  (396) 
136355

>  <fragmenstein_outcome>  (396) 
acceptable

>  <energy_score>  (396) 
-81.143886

>  <distance_score>  (396) 
0.98296

>  <fragmenstein_mode>  (396) 
expansion

>  <HIPPO Compound ID>  (396) 
42170

>  <name>  (396) 
QDRNUZJCZMBGBN-UHFFFAOYSA-N

>  <ref_pdb>  (396) 
z0496a

>  <ref_mols>  (396) 
z0496a,z0881a

>  <csv_name>  (396) 
RdRp_knitwork_green_site_rna_tunnel_pure_split4000_batch009.csv

>  <fragmenstein_runtime>  (396) 
2.953773

>  <tags>  (396) 
['Fragmenstein placed']

>  <original ID>  (396) 
QDRNUZJCZMBGBN-UHFFFAOYSA-N

>  <fragmenstein_error>  (396) 
None

>  <original SMILES>  (396) 
Cc1cnc2ccccc2c1C(=O)OCCc1cncs1

>  <inchikey>  (396) 
QDRNUZJCZMBGBN-UHFFFAOYSA-N

>  <SLURM_JOB_NAME>  (396) 
BulkDock.place:Flavi_NS5_RdRp:RdRp_knitwork_green_site_rna_tunnel_pure_split4000_batch009

>  <scratch_subdir>  (396) 
/opt/xchem-fragalysis-2/maxwin/BulkDock/SCRATCH/217080/C42170-P136

>  <alias>  (396) 
None

>  <SLURM_JOB_ID>  (396) 
217080

>  <exports>  (396) 
['/opt/xchem-fragalysis-2/maxwin/BulkDock/OUTPUTS/RdRp_knitwork_green_site_rna_tunnel_pure_split4000_batch009_217080.sdf']

$$$$
136432
     RDKit          3D

 21 23  0  0  0  0  0  0  0  0999 V2000
  -23.9523  -33.5413  -24.2028 C   0  0  0  0  0  0  0  0  0  0  0  0
  -24.2018  -33.8572  -22.7393 C   0  0  2  0  0  0  0  0  0  0  0  0
  -24.6445  -32.6444  -22.0307 N   0  0  0  0  0  0  0  0  0  0  0  0
  -25.2180  -33.0037  -20.7178 C   0  0  0  0  0  0  0  0  0  0  0  0
  -24.5774  -32.1830  -19.6007 C   0  0  0  0  0  0  0  0  0  0  0  0
  -25.2331  -30.8497  -19.3141 C   0  0  1  0  0  0  0  0  0  0  0  0
  -25.5023  -30.0515  -20.4759 N   0  0  0  0  0  0  0  0  0  0  0  0
  -26.8342  -29.7587  -20.5817 C   0  0  0  0  0  0  0  0  0  0  0  0
  -27.3562  -29.2329  -21.5418 O   0  0  0  0  0  0  0  0  0  0  0  0
  -27.4823  -30.2186  -19.4956 N   0  0  0  0  0  0  0  0  0  0  0  0
  -26.6508  -31.0048  -18.7708 C   0  0  0  0  0  0  0  0  0  0  0  0
  -27.0008  -31.7307  -17.8570 O   0  0  0  0  0  0  0  0  0  0  0  0
  -22.9966  -34.4359  -22.0574 C   0  0  0  0  0  0  0  0  0  0  0  0
  -22.8365  -35.7720  -21.7325 C   0  0  0  0  0  0  0  0  0  0  0  0
  -21.6843  -35.9796  -21.0530 O   0  0  0  0  0  0  0  0  0  0  0  0
  -21.0748  -34.7751  -20.9217 C   0  0  0  0  0  0  0  0  0  0  0  0
  -19.8697  -34.5567  -20.2570 C   0  0  0  0  0  0  0  0  0  0  0  0
  -19.3915  -33.2427  -20.2441 C   0  0  0  0  0  0  0  0  0  0  0  0
  -20.1012  -32.2127  -20.8667 C   0  0  0  0  0  0  0  0  0  0  0  0
  -21.3176  -32.4673  -21.5195 C   0  0  0  0  0  0  0  0  0  0  0  0
  -21.8204  -33.7843  -21.5505 C   0  0  0  0  0  0  0  0  0  0  0  0
  2  1  1  6
  2  3  1  0
  3  4  1  0
  4  5  1  0
  6  5  1  6
  6  7  1  0
  7  8  1  0
  8  9  2  0
  8 10  1  0
 10 11  1  0
 11 12  2  0
  2 13  1  0
 13 14  2  0
 14 15  1  0
 15 16  1  0
 16 17  2  0
 17 18  1  0
 18 19  2  0
 19 20  1  0
 20 21  2  0
 11  6  1  0
 21 13  1  0
 21 16  1  0
M  END
>  <HIPPO Pose ID>  (397) 
136432

>  <fragmenstein_outcome>  (397) 
acceptable

>  <energy_score>  (397) 
-73.316121

>  <distance_score>  (397) 
0.833685

>  <fragmenstein_mode>  (397) 
expansion

>  <HIPPO Compound ID>  (397) 
28622

>  <name>  (397) 
WTMIHZIJMZOANU-JOYOIKCWSA-N

>  <ref_pdb>  (397) 
3vws-b

>  <ref_mols>  (397) 
z0521a,3vws-b

>  <csv_name>  (397) 
RdRp_knitwork_green_site_rna_tunnel_pure_split4000_batch000.csv

>  <fragmenstein_runtime>  (397) 
4.792989

>  <tags>  (397) 
['Fragmenstein placed']

>  <original ID>  (397) 
WTMIHZIJMZOANU-JOYOIKCWSA-N

>  <fragmenstein_error>  (397) 
None

>  <original SMILES>  (397) 
C[C@H](NCC[C@H]1NC(=O)NC1=O)c1coc2ccccc12

>  <inchikey>  (397) 
WTMIHZIJMZOANU-JOYOIKCWSA-N

>  <SLURM_JOB_NAME>  (397) 
BulkDock.place:Flavi_NS5_RdRp:RdRp_knitwork_green_site_rna_tunnel_pure_split4000_batch000

>  <scratch_subdir>  (397) 
/opt/xchem-fragalysis-2/maxwin/BulkDock/SCRATCH/217071/C28622-P217

>  <alias>  (397) 
None

>  <SLURM_JOB_ID>  (397) 
217071

>  <exports>  (397) 
['/opt/xchem-fragalysis-2/maxwin/BulkDock/OUTPUTS/RdRp_knitwork_green_site_rna_tunnel_pure_split4000_batch000_217071.sdf']

$$$$
136457
     RDKit          3D

 23 26  0  0  0  0  0  0  0  0999 V2000
  -30.5579  -29.9190  -18.7389 O   0  0  0  0  0  0  0  0  0  0  0  0
  -30.0095  -30.0163  -19.8293 C   0  0  0  0  0  0  0  0  0  0  0  0
  -30.7593  -30.0305  -20.9544 O   0  0  0  0  0  0  0  0  0  0  0  0
  -28.5644  -30.1747  -20.0119 C   0  0  0  0  0  0  0  0  0  0  0  0
  -27.9445  -30.5858  -21.1752 N   0  0  0  0  0  0  0  0  0  0  0  0
  -26.7298  -30.9077  -20.7835 C   0  0  0  0  0  0  0  0  0  0  0  0
  -25.7125  -31.4959  -21.4767 N   0  0  0  0  0  0  0  0  0  0  0  0
  -24.6846  -31.8670  -20.7638 C   0  0  0  0  0  0  0  0  0  0  0  0
  -24.4989  -31.7046  -19.2731 C   0  0  0  0  0  0  0  0  0  0  0  0
  -23.3648  -32.2313  -18.5876 C   0  0  0  0  0  0  0  0  0  0  0  0
  -22.8358  -31.8645  -17.3320 C   0  0  0  0  0  0  0  0  0  0  0  0
  -21.7821  -32.6009  -16.9677 N   0  0  0  0  0  0  0  0  0  0  0  0
  -21.6535  -33.5112  -17.9787 N   0  0  0  0  0  0  0  0  0  0  0  0
  -20.6752  -34.5558  -17.9444 C   0  0  0  0  0  0  0  0  0  0  0  0
  -19.8216  -34.6439  -16.8443 C   0  0  0  0  0  0  0  0  0  0  0  0
  -18.8710  -35.6634  -16.8110 C   0  0  0  0  0  0  0  0  0  0  0  0
  -18.7935  -36.5607  -17.8696 C   0  0  0  0  0  0  0  0  0  0  0  0
  -19.6746  -36.4030  -18.9260 C   0  0  0  0  0  0  0  0  0  0  0  0
  -20.6136  -35.4336  -18.9868 N   0  0  0  0  0  0  0  0  0  0  0  0
  -22.5689  -33.2796  -18.9870 C   0  0  0  0  0  0  0  0  0  0  0  0
  -25.5114  -31.0456  -18.6856 C   0  0  0  0  0  0  0  0  0  0  0  0
  -26.6146  -30.6484  -19.4176 N   0  0  0  0  0  0  0  0  0  0  0  0
  -27.7318  -30.0594  -18.9644 N   0  0  0  0  0  0  0  0  0  0  0  0
  1  2  2  0
  2  3  1  0
  2  4  1  0
  4  5  1  0
  5  6  2  0
  6  7  1  0
  7  8  2  0
  8  9  1  0
  9 10  1  0
 10 11  1  0
 11 12  2  0
 12 13  1  0
 13 14  1  0
 14 15  2  0
 15 16  1  0
 16 17  2  0
 17 18  1  0
 18 19  2  0
 13 20  1  0
  9 21  2  0
 21 22  1  0
 22 23  1  0
 23  4  2  0
 22  6  1  0
 20 10  2  0
 19 14  1  0
M  END
>  <HIPPO Pose ID>  (398) 
136457

>  <fragmenstein_outcome>  (398) 
acceptable

>  <energy_score>  (398) 
-51.062441

>  <distance_score>  (398) 
0.832664

>  <fragmenstein_mode>  (398) 
expansion

>  <HIPPO Compound ID>  (398) 
42795

>  <name>  (398) 
BMSOZZCWYYPXCJ-UHFFFAOYSA-N

>  <ref_pdb>  (398) 
z0521a

>  <ref_mols>  (398) 
z0521a,z0637a

>  <csv_name>  (398) 
RdRp_knitwork_green_site_rna_tunnel_pure_split4000_batch015.csv

>  <fragmenstein_runtime>  (398) 
3.83651

>  <tags>  (398) 
['Fragmenstein placed']

>  <original ID>  (398) 
BMSOZZCWYYPXCJ-UHFFFAOYSA-N

>  <fragmenstein_error>  (398) 
None

>  <original SMILES>  (398) 
O=C(O)c1nc2ncc(-c3cnn(-c4ccccn4)c3)cn2n1

>  <inchikey>  (398) 
BMSOZZCWYYPXCJ-UHFFFAOYSA-N

>  <SLURM_JOB_NAME>  (398) 
BulkDock.place:Flavi_NS5_RdRp:RdRp_knitwork_green_site_rna_tunnel_pure_split4000_batch015

>  <scratch_subdir>  (398) 
/opt/xchem-fragalysis-2/maxwin/BulkDock/SCRATCH/217086/C42795-P141

>  <alias>  (398) 
None

>  <SLURM_JOB_ID>  (398) 
217086

>  <exports>  (398) 
['/opt/xchem-fragalysis-2/maxwin/BulkDock/OUTPUTS/RdRp_knitwork_green_site_rna_tunnel_pure_split4000_batch015_217086.sdf']

$$$$
136464
     RDKit          3D

 23 26  0  0  0  0  0  0  0  0999 V2000
  -30.3833  -29.5870  -18.5900 O   0  0  0  0  0  0  0  0  0  0  0  0
  -29.8691  -29.7521  -19.6890 C   0  0  0  0  0  0  0  0  0  0  0  0
  -30.6438  -29.7637  -20.8008 O   0  0  0  0  0  0  0  0  0  0  0  0
  -28.4426  -30.0000  -19.8942 C   0  0  0  0  0  0  0  0  0  0  0  0
  -27.8556  -30.3600  -21.0881 N   0  0  0  0  0  0  0  0  0  0  0  0
  -26.6362  -30.7123  -20.7425 C   0  0  0  0  0  0  0  0  0  0  0  0
  -25.6363  -31.2644  -21.4868 N   0  0  0  0  0  0  0  0  0  0  0  0
  -24.5934  -31.6718  -20.8202 C   0  0  0  0  0  0  0  0  0  0  0  0
  -24.3783  -31.5958  -19.3285 C   0  0  0  0  0  0  0  0  0  0  0  0
  -23.2686  -32.2174  -18.6877 C   0  0  0  0  0  0  0  0  0  0  0  0
  -22.7273  -31.9708  -17.4081 C   0  0  0  0  0  0  0  0  0  0  0  0
  -21.7482  -32.8186  -17.0812 N   0  0  0  0  0  0  0  0  0  0  0  0
  -21.6806  -33.6717  -18.1453 N   0  0  0  0  0  0  0  0  0  0  0  0
  -20.8170  -34.8121  -18.1610 C   0  0  0  0  0  0  0  0  0  0  0  0
  -20.1146  -35.1394  -17.0008 C   0  0  0  0  0  0  0  0  0  0  0  0
  -19.3101  -36.2776  -17.0024 C   0  0  0  0  0  0  0  0  0  0  0  0
  -19.2255  -37.0526  -18.1524 C   0  0  0  0  0  0  0  0  0  0  0  0
  -19.9447  -36.6507  -19.2656 C   0  0  0  0  0  0  0  0  0  0  0  0
  -20.7264  -35.5486  -19.3061 N   0  0  0  0  0  0  0  0  0  0  0  0
  -22.5331  -33.2787  -19.1610 C   0  0  0  0  0  0  0  0  0  0  0  0
  -25.3668  -30.9537  -18.6855 C   0  0  0  0  0  0  0  0  0  0  0  0
  -26.4859  -30.5207  -19.3698 N   0  0  0  0  0  0  0  0  0  0  0  0
  -27.5995  -29.9872  -18.8514 N   0  0  0  0  0  0  0  0  0  0  0  0
  1  2  2  0
  2  3  1  0
  2  4  1  0
  4  5  1  0
  5  6  2  0
  6  7  1  0
  7  8  2  0
  8  9  1  0
  9 10  1  0
 10 11  1  0
 11 12  2  0
 12 13  1  0
 13 14  1  0
 14 15  2  0
 15 16  1  0
 16 17  2  0
 17 18  1  0
 18 19  2  0
 13 20  1  0
  9 21  2  0
 21 22  1  0
 22 23  1  0
 23  4  2  0
 22  6  1  0
 20 10  2  0
 19 14  1  0
M  END
>  <HIPPO Pose ID>  (399) 
136464

>  <fragmenstein_outcome>  (399) 
acceptable

>  <energy_score>  (399) 
-51.068885

>  <distance_score>  (399) 
0.907344

>  <fragmenstein_mode>  (399) 
expansion

>  <HIPPO Compound ID>  (399) 
42795

>  <name>  (399) 
BMSOZZCWYYPXCJ-UHFFFAOYSA-N

>  <ref_pdb>  (399) 
z0637a

>  <ref_mols>  (399) 
z0521a,z0637a

>  <csv_name>  (399) 
RdRp_knitwork_green_site_rna_tunnel_pure_split4000_batch015.csv

>  <fragmenstein_runtime>  (399) 
3.130438

>  <tags>  (399) 
['Fragmenstein placed']

>  <original ID>  (399) 
BMSOZZCWYYPXCJ-UHFFFAOYSA-N

>  <fragmenstein_error>  (399) 
None

>  <original SMILES>  (399) 
O=C(O)c1nc2ncc(-c3cnn(-c4ccccn4)c3)cn2n1

>  <inchikey>  (399) 
BMSOZZCWYYPXCJ-UHFFFAOYSA-N

>  <SLURM_JOB_NAME>  (399) 
BulkDock.place:Flavi_NS5_RdRp:RdRp_knitwork_green_site_rna_tunnel_pure_split4000_batch015

>  <scratch_subdir>  (399) 
/opt/xchem-fragalysis-2/maxwin/BulkDock/SCRATCH/217086/C42795-P151

>  <alias>  (399) 
None

>  <SLURM_JOB_ID>  (399) 
217086

>  <exports>  (399) 
['/opt/xchem-fragalysis-2/maxwin/BulkDock/OUTPUTS/RdRp_knitwork_green_site_rna_tunnel_pure_split4000_batch015_217086.sdf']

$$$$
136473
     RDKit          3D

 20 22  0  0  0  0  0  0  0  0999 V2000
  -26.9729  -38.8194  -22.0883 C   0  0  0  0  0  0  0  0  0  0  0  0
  -27.5262  -37.5149  -22.1898 O   0  0  0  0  0  0  0  0  0  0  0  0
  -27.7446  -36.9754  -23.5193 C   0  0  0  0  0  0  0  0  0  0  0  0
  -26.4816  -36.2455  -23.9854 C   0  0  0  0  0  0  0  0  0  0  0  0
  -25.9907  -35.2669  -22.9123 C   0  0  0  0  0  0  0  0  0  0  0  0
  -24.9297  -34.4304  -23.4752 N   0  0  0  0  0  0  0  0  0  0  0  0
  -24.3048  -33.5325  -22.4927 C   0  0  2  0  0  0  0  0  0  0  0  0
  -24.0400  -32.2188  -23.2240 C   0  0  0  0  0  0  0  0  0  0  0  0
  -23.0661  -34.1889  -21.9204 C   0  0  0  0  0  0  0  0  0  0  0  0
  -22.8652  -35.5557  -21.7767 C   0  0  0  0  0  0  0  0  0  0  0  0
  -21.6963  -35.8387  -21.1640 O   0  0  0  0  0  0  0  0  0  0  0  0
  -21.0915  -34.6578  -20.9043 C   0  0  0  0  0  0  0  0  0  0  0  0
  -19.8536  -34.5316  -20.2749 C   0  0  0  0  0  0  0  0  0  0  0  0
  -19.3563  -33.2372  -20.1222 C   0  0  0  0  0  0  0  0  0  0  0  0
  -20.0886  -32.1370  -20.5665 C   0  0  0  0  0  0  0  0  0  0  0  0
  -21.3473  -32.2991  -21.1711 C   0  0  0  0  0  0  0  0  0  0  0  0
  -21.8703  -33.5969  -21.3616 C   0  0  0  0  0  0  0  0  0  0  0  0
  -29.0521  -36.1237  -23.6499 C   0  0  0  0  0  0  0  0  0  0  0  0
  -29.7639  -37.4011  -24.1277 C   0  0  0  0  0  0  0  0  0  0  0  0
  -28.3889  -37.9150  -24.5901 C   0  0  0  0  0  0  0  0  0  0  0  0
  1  2  1  0
  2  3  1  0
  3  4  1  0
  4  5  1  0
  5  6  1  0
  6  7  1  0
  7  8  1  6
  7  9  1  0
  9 10  2  0
 10 11  1  0
 11 12  1  0
 12 13  2  0
 13 14  1  0
 14 15  2  0
 15 16  1  0
 16 17  2  0
  3 18  1  0
 18 19  1  0
 19 20  1  0
 20  3  1  0
 17  9  1  0
 17 12  1  0
M  END
>  <HIPPO Pose ID>  (400) 
136473

>  <fragmenstein_outcome>  (400) 
acceptable

>  <energy_score>  (400) 
-28.684544

>  <distance_score>  (400) 
0.843399

>  <fragmenstein_mode>  (400) 
expansion

>  <HIPPO Compound ID>  (400) 
28861

>  <name>  (400) 
BHZWATZPZLBMJI-CYBMUJFWSA-N

>  <ref_pdb>  (400) 
3vws-b

>  <ref_mols>  (400) 
z0521a,3vws-b

>  <csv_name>  (400) 
RdRp_knitwork_green_site_rna_tunnel_pure_split4000_batch000.csv

>  <fragmenstein_runtime>  (400) 
3.53752

>  <tags>  (400) 
['Fragmenstein placed']

>  <original ID>  (400) 
BHZWATZPZLBMJI-CYBMUJFWSA-N

>  <fragmenstein_error>  (400) 
None

>  <original SMILES>  (400) 
COC1(CCN[C@H](C)c2coc3ccccc23)CCC1

>  <inchikey>  (400) 
BHZWATZPZLBMJI-CYBMUJFWSA-N

>  <SLURM_JOB_NAME>  (400) 
BulkDock.place:Flavi_NS5_RdRp:RdRp_knitwork_green_site_rna_tunnel_pure_split4000_batch000

>  <scratch_subdir>  (400) 
/opt/xchem-fragalysis-2/maxwin/BulkDock/SCRATCH/217071/C28861-P217

>  <alias>  (400) 
None

>  <SLURM_JOB_ID>  (400) 
217071

>  <exports>  (400) 
['/opt/xchem-fragalysis-2/maxwin/BulkDock/OUTPUTS/RdRp_knitwork_green_site_rna_tunnel_pure_split4000_batch000_217071.sdf']

$$$$
136774
     RDKit          3D

 23 25  0  0  0  0  0  0  0  0999 V2000
  -24.5359  -32.8460  -24.7667 O   0  0  0  0  0  0  0  0  0  0  0  0
  -23.3581  -32.9050  -24.4432 C   0  0  0  0  0  0  0  0  0  0  0  0
  -22.2720  -33.6332  -25.1941 C   0  0  0  0  0  0  0  0  0  0  0  0
  -20.9935  -33.1194  -24.5408 C   0  0  0  0  0  0  0  0  0  0  0  0
  -21.4235  -32.7699  -23.1299 C   0  0  0  0  0  0  0  0  0  0  0  0
  -22.7901  -32.3543  -23.3059 N   0  0  0  0  0  0  0  0  0  0  0  0
  -23.5940  -31.8599  -22.2070 C   0  0  0  0  0  0  0  0  0  0  0  0
  -24.1384  -32.9724  -21.3005 C   0  0  2  0  0  0  0  0  0  0  0  0
  -24.7618  -34.0226  -22.0563 O   0  0  0  0  0  0  0  0  0  0  0  0
  -25.1572  -32.4131  -20.2980 C   0  0  0  0  0  0  0  0  0  0  0  0
  -26.4272  -32.0283  -20.9518 N   0  0  0  0  0  0  0  0  0  0  0  0
  -26.7134  -30.6098  -20.8817 C   0  0  0  0  0  0  0  0  0  0  0  0
  -27.9280  -30.0014  -20.1226 C   0  0  1  0  0  0  0  0  0  0  0  0
  -29.2437  -30.3221  -20.8026 C   0  0  0  0  0  0  0  0  0  0  0  0
  -30.3911  -29.6917  -20.0610 C   0  0  0  0  0  0  0  0  0  0  0  0
  -30.4643  -30.1318  -18.7168 O   0  0  0  0  0  0  0  0  0  0  0  0
  -29.2931  -30.0276  -18.0241 C   0  0  0  0  0  0  0  0  0  0  0  0
  -29.4532  -29.9360  -16.6450 C   0  0  0  0  0  0  0  0  0  0  0  0
  -28.3407  -29.8811  -15.8211 C   0  0  0  0  0  0  0  0  0  0  0  0
  -27.0731  -29.9388  -16.3903 C   0  0  0  0  0  0  0  0  0  0  0  0
  -25.5829  -30.0429  -15.2448 Br  0  0  0  0  0  0  0  0  0  0  0  0
  -26.9024  -30.0045  -17.7778 C   0  0  0  0  0  0  0  0  0  0  0  0
  -28.0214  -30.0599  -18.6191 C   0  0  0  0  0  0  0  0  0  0  0  0
  1  2  2  0
  2  3  1  0
  3  4  1  0
  4  5  1  0
  5  6  1  0
  6  7  1  0
  7  8  1  0
  8  9  1  6
  8 10  1  0
 10 11  1  0
 11 12  1  0
 13 12  1  6
 13 14  1  0
 14 15  1  0
 15 16  1  0
 16 17  1  0
 17 18  2  0
 18 19  1  0
 19 20  2  0
 20 21  1  0
 20 22  1  0
 22 23  2  0
  6  2  1  0
 23 13  1  0
 23 17  1  0
M  END
>  <HIPPO Pose ID>  (401) 
136774

>  <fragmenstein_outcome>  (401) 
acceptable

>  <energy_score>  (401) 
-46.427695

>  <distance_score>  (401) 
0.987469

>  <fragmenstein_mode>  (401) 
expansion

>  <HIPPO Compound ID>  (401) 
61551

>  <name>  (401) 
ZSNSEKBKJJRRPC-TZMCWYRMSA-N

>  <ref_pdb>  (401) 
z1018a

>  <ref_mols>  (401) 
z0991a,z1018a

>  <csv_name>  (401) 
RdRp_knitwork_green_site_rna_tunnel_pure_split4000_batch001.csv

>  <fragmenstein_runtime>  (401) 
5.580996

>  <tags>  (401) 
['Fragmenstein placed']

>  <original ID>  (401) 
ZSNSEKBKJJRRPC-TZMCWYRMSA-N

>  <fragmenstein_error>  (401) 
None

>  <original SMILES>  (401) 
O=C1CCCN1C[C@H](O)CNC[C@H]1CCOc2ccc(Br)cc21

>  <inchikey>  (401) 
ZSNSEKBKJJRRPC-TZMCWYRMSA-N

>  <SLURM_JOB_NAME>  (401) 
BulkDock.place:Flavi_NS5_RdRp:RdRp_knitwork_green_site_rna_tunnel_pure_split4000_batch001

>  <scratch_subdir>  (401) 
/opt/xchem-fragalysis-2/maxwin/BulkDock/SCRATCH/217072/C61551-P206

>  <alias>  (401) 
None

>  <SLURM_JOB_ID>  (401) 
217072

>  <exports>  (401) 
['/opt/xchem-fragalysis-2/maxwin/BulkDock/OUTPUTS/RdRp_knitwork_green_site_rna_tunnel_pure_split4000_batch001_217072.sdf']

$$$$
136831
     RDKit          3D

 20 22  0  0  0  0  0  0  0  0999 V2000
  -23.7629  -32.8162  -19.6034 C   0  0  0  0  0  0  0  0  0  0  0  0
  -24.3094  -32.2415  -20.9206 C   0  0  1  0  0  0  0  0  0  0  0  0
  -24.7580  -33.2465  -21.9166 N   0  0  0  0  0  0  0  0  0  0  0  0
  -23.7408  -33.6282  -22.8989 C   0  0  1  0  0  0  0  0  0  0  0  0
  -23.3347  -32.4899  -23.8261 C   0  0  0  0  0  0  0  0  0  0  0  0
  -22.6408  -34.3718  -22.2082 C   0  0  0  0  0  0  0  0  0  0  0  0
  -22.7170  -35.7042  -21.8363 C   0  0  0  0  0  0  0  0  0  0  0  0
  -21.6704  -36.0661  -21.0573 O   0  0  0  0  0  0  0  0  0  0  0  0
  -20.8959  -34.9586  -20.9097 C   0  0  0  0  0  0  0  0  0  0  0  0
  -19.7521  -34.8878  -20.1145 C   0  0  0  0  0  0  0  0  0  0  0  0
  -19.0760  -33.6677  -20.0971 C   0  0  0  0  0  0  0  0  0  0  0  0
  -19.5448  -32.5851  -20.8381 C   0  0  0  0  0  0  0  0  0  0  0  0
  -20.7041  -32.6786  -21.6191 C   0  0  0  0  0  0  0  0  0  0  0  0
  -21.4029  -33.8996  -21.6595 C   0  0  0  0  0  0  0  0  0  0  0  0
  -25.5265  -31.3976  -20.6117 C   0  0  0  0  0  0  0  0  0  0  0  0
  -25.9258  -30.8844  -19.3958 C   0  0  0  0  0  0  0  0  0  0  0  0
  -27.1585  -30.3611  -19.6220 N   0  0  0  0  0  0  0  0  0  0  0  0
  -28.0238  -29.8715  -18.5907 C   0  0  0  0  0  0  0  0  0  0  0  0
  -27.4336  -30.4718  -20.9511 C   0  0  0  0  0  0  0  0  0  0  0  0
  -26.4685  -31.1000  -21.5861 N   0  0  0  0  0  0  0  0  0  0  0  0
  2  1  1  1
  2  3  1  0
  3  4  1  0
  4  5  1  1
  4  6  1  0
  6  7  2  0
  7  8  1  0
  8  9  1  0
  9 10  2  0
 10 11  1  0
 11 12  2  0
 12 13  1  0
 13 14  2  0
  2 15  1  0
 15 16  2  0
 16 17  1  0
 17 18  1  0
 17 19  1  0
 19 20  2  0
 14  6  1  0
 20 15  1  0
 14  9  1  0
M  END
>  <HIPPO Pose ID>  (402) 
136831

>  <fragmenstein_outcome>  (402) 
acceptable

>  <energy_score>  (402) 
-34.541374

>  <distance_score>  (402) 
0.955105

>  <fragmenstein_mode>  (402) 
expansion

>  <HIPPO Compound ID>  (402) 
32851

>  <name>  (402) 
RRTAKTTUWMOXFH-NWDGAFQWSA-N

>  <ref_pdb>  (402) 
z0521a

>  <ref_mols>  (402) 
z0521a,3vws-b

>  <csv_name>  (402) 
RdRp_knitwork_green_site_rna_tunnel_pure_split4000_batch000.csv

>  <fragmenstein_runtime>  (402) 
2.362367

>  <tags>  (402) 
['Fragmenstein placed']

>  <original ID>  (402) 
RRTAKTTUWMOXFH-NWDGAFQWSA-N

>  <fragmenstein_error>  (402) 
None

>  <original SMILES>  (402) 
C[C@H](N[C@H](C)c1cn(C)cn1)c1coc2ccccc12

>  <inchikey>  (402) 
RRTAKTTUWMOXFH-NWDGAFQWSA-N

>  <SLURM_JOB_NAME>  (402) 
BulkDock.place:Flavi_NS5_RdRp:RdRp_knitwork_green_site_rna_tunnel_pure_split4000_batch000

>  <scratch_subdir>  (402) 
/opt/xchem-fragalysis-2/maxwin/BulkDock/SCRATCH/217071/C32851-P141

>  <alias>  (402) 
None

>  <SLURM_JOB_ID>  (402) 
217071

>  <exports>  (402) 
['/opt/xchem-fragalysis-2/maxwin/BulkDock/OUTPUTS/RdRp_knitwork_green_site_rna_tunnel_pure_split4000_batch000_217071.sdf']

$$$$
136860
     RDKit          3D

 19 21  0  0  0  0  0  0  0  0999 V2000
  -24.5287  -34.0094  -23.9519 C   0  0  0  0  0  0  0  0  0  0  0  0
  -23.3108  -33.2978  -23.3499 C   0  0  1  0  0  0  0  0  0  0  0  0
  -23.5361  -31.8760  -23.0360 N   0  0  0  0  0  0  0  0  0  0  0  0
  -24.7349  -31.5841  -22.2548 C   0  0  0  0  0  0  0  0  0  0  0  0
  -24.4619  -31.3114  -20.7758 C   0  0  0  0  0  0  0  0  0  0  0  0
  -25.6965  -31.1361  -20.0466 N   0  0  0  0  0  0  0  0  0  0  0  0
  -26.1463  -31.9430  -19.0437 C   0  0  0  0  0  0  0  0  0  0  0  0
  -27.3647  -31.4146  -18.6939 C   0  0  0  0  0  0  0  0  0  0  0  0
  -27.6523  -30.3063  -19.4470 N   0  0  0  0  0  0  0  0  0  0  0  0
  -26.6164  -30.1469  -20.2371 C   0  0  0  0  0  0  0  0  0  0  0  0
  -22.6659  -34.0192  -22.2004 C   0  0  0  0  0  0  0  0  0  0  0  0
  -22.9954  -35.2773  -21.7232 C   0  0  0  0  0  0  0  0  0  0  0  0
  -22.1274  -35.6893  -20.7716 O   0  0  0  0  0  0  0  0  0  0  0  0
  -21.2142  -34.7018  -20.6071 C   0  0  0  0  0  0  0  0  0  0  0  0
  -20.1263  -34.7567  -19.7396 C   0  0  0  0  0  0  0  0  0  0  0  0
  -19.2914  -33.6365  -19.7073 C   0  0  0  0  0  0  0  0  0  0  0  0
  -19.5462  -32.5275  -20.5128 C   0  0  0  0  0  0  0  0  0  0  0  0
  -20.6403  -32.5112  -21.3892 C   0  0  0  0  0  0  0  0  0  0  0  0
  -21.5052  -33.6273  -21.4396 C   0  0  0  0  0  0  0  0  0  0  0  0
  2  1  1  1
  2  3  1  0
  3  4  1  0
  4  5  1  0
  5  6  1  0
  6  7  1  0
  7  8  2  0
  8  9  1  0
  9 10  2  0
  2 11  1  0
 11 12  2  0
 12 13  1  0
 13 14  1  0
 14 15  2  0
 15 16  1  0
 16 17  2  0
 17 18  1  0
 18 19  2  0
 10  6  1  0
 19 11  1  0
 19 14  1  0
M  END
>  <HIPPO Pose ID>  (403) 
136860

>  <fragmenstein_outcome>  (403) 
acceptable

>  <energy_score>  (403) 
-33.224726

>  <distance_score>  (403) 
0.992171

>  <fragmenstein_mode>  (403) 
expansion

>  <HIPPO Compound ID>  (403) 
32971

>  <name>  (403) 
LRHYLSADJZWHAN-GFCCVEGCSA-N

>  <ref_pdb>  (403) 
3vws-b

>  <ref_mols>  (403) 
z0521a,3vws-b

>  <csv_name>  (403) 
RdRp_knitwork_green_site_rna_tunnel_pure_split4000_batch000.csv

>  <fragmenstein_runtime>  (403) 
3.27646

>  <tags>  (403) 
['Fragmenstein placed']

>  <original ID>  (403) 
LRHYLSADJZWHAN-GFCCVEGCSA-N

>  <fragmenstein_error>  (403) 
None

>  <original SMILES>  (403) 
C[C@@H](NCCn1ccnc1)c1coc2ccccc12

>  <inchikey>  (403) 
LRHYLSADJZWHAN-GFCCVEGCSA-N

>  <SLURM_JOB_NAME>  (403) 
BulkDock.place:Flavi_NS5_RdRp:RdRp_knitwork_green_site_rna_tunnel_pure_split4000_batch000

>  <scratch_subdir>  (403) 
/opt/xchem-fragalysis-2/maxwin/BulkDock/SCRATCH/217071/C32971-P217

>  <alias>  (403) 
None

>  <SLURM_JOB_ID>  (403) 
217071

>  <exports>  (403) 
['/opt/xchem-fragalysis-2/maxwin/BulkDock/OUTPUTS/RdRp_knitwork_green_site_rna_tunnel_pure_split4000_batch000_217071.sdf']

$$$$
136920
     RDKit          3D

 22 24  0  0  0  0  0  0  0  0999 V2000
  -24.7246  -34.0144  -23.9109 C   0  0  0  0  0  0  0  0  0  0  0  0
  -23.6691  -33.2486  -23.1248 C   0  0  1  0  0  0  0  0  0  0  0  0
  -24.3220  -32.2766  -22.2586 N   0  0  0  0  0  0  0  0  0  0  0  0
  -24.5093  -30.9359  -22.8006 C   0  0  0  0  0  0  0  0  0  0  0  0
  -24.5816  -29.8719  -21.6838 C   0  0  0  0  0  0  0  0  0  0  0  0
  -25.4953  -30.2234  -20.6174 N   0  0  0  0  0  0  0  0  0  0  0  0
  -25.2349  -31.1446  -19.6462 C   0  0  0  0  0  0  0  0  0  0  0  0
  -24.1708  -31.7256  -19.4901 O   0  0  0  0  0  0  0  0  0  0  0  0
  -26.4975  -31.3951  -18.8496 C   0  0  0  0  0  0  0  0  0  0  0  0
  -27.3667  -30.3988  -19.4282 N   0  0  0  0  0  0  0  0  0  0  0  0
  -28.7924  -30.4477  -19.2640 C   0  0  0  0  0  0  0  0  0  0  0  0
  -26.7994  -29.8620  -20.5684 C   0  0  0  0  0  0  0  0  0  0  0  0
  -27.3965  -29.2151  -21.4101 O   0  0  0  0  0  0  0  0  0  0  0  0
  -22.8097  -34.1110  -22.2440 C   0  0  0  0  0  0  0  0  0  0  0  0
  -22.9547  -35.4510  -21.9341 C   0  0  0  0  0  0  0  0  0  0  0  0
  -21.9566  -35.8792  -21.1217 O   0  0  0  0  0  0  0  0  0  0  0  0
  -21.1568  -34.8112  -20.8708 C   0  0  0  0  0  0  0  0  0  0  0  0
  -20.0123  -34.8271  -20.0775 C   0  0  0  0  0  0  0  0  0  0  0  0
  -19.3230  -33.6157  -19.9503 C   0  0  0  0  0  0  0  0  0  0  0  0
  -19.7766  -32.4558  -20.5837 C   0  0  0  0  0  0  0  0  0  0  0  0
  -20.9335  -32.4742  -21.3752 C   0  0  0  0  0  0  0  0  0  0  0  0
  -21.6358  -33.6872  -21.5300 C   0  0  0  0  0  0  0  0  0  0  0  0
  2  1  1  1
  2  3  1  0
  3  4  1  0
  4  5  1  0
  5  6  1  0
  6  7  1  0
  7  8  2  0
  7  9  1  0
  9 10  1  0
 10 11  1  0
 10 12  1  0
 12 13  2  0
  2 14  1  0
 14 15  2  0
 15 16  1  0
 16 17  1  0
 17 18  2  0
 18 19  1  0
 19 20  2  0
 20 21  1  0
 21 22  2  0
 12  6  1  0
 22 14  1  0
 22 17  1  0
M  END
>  <HIPPO Pose ID>  (404) 
136920

>  <fragmenstein_outcome>  (404) 
acceptable

>  <energy_score>  (404) 
-25.841853

>  <distance_score>  (404) 
0.951911

>  <fragmenstein_mode>  (404) 
expansion

>  <HIPPO Compound ID>  (404) 
33287

>  <name>  (404) 
QEXNYPBYXRYBOQ-LLVKDONJSA-N

>  <ref_pdb>  (404) 
3vws-b

>  <ref_mols>  (404) 
z0521a,3vws-b

>  <csv_name>  (404) 
RdRp_knitwork_green_site_rna_tunnel_pure_split4000_batch000.csv

>  <fragmenstein_runtime>  (404) 
4.15005

>  <tags>  (404) 
['Fragmenstein placed']

>  <original ID>  (404) 
QEXNYPBYXRYBOQ-LLVKDONJSA-N

>  <fragmenstein_error>  (404) 
None

>  <original SMILES>  (404) 
C[C@@H](NCCN1C(=O)CN(C)C1=O)c1coc2ccccc12

>  <inchikey>  (404) 
QEXNYPBYXRYBOQ-LLVKDONJSA-N

>  <SLURM_JOB_NAME>  (404) 
BulkDock.place:Flavi_NS5_RdRp:RdRp_knitwork_green_site_rna_tunnel_pure_split4000_batch000

>  <scratch_subdir>  (404) 
/opt/xchem-fragalysis-2/maxwin/BulkDock/SCRATCH/217071/C33287-P217

>  <alias>  (404) 
None

>  <SLURM_JOB_ID>  (404) 
217071

>  <exports>  (404) 
['/opt/xchem-fragalysis-2/maxwin/BulkDock/OUTPUTS/RdRp_knitwork_green_site_rna_tunnel_pure_split4000_batch000_217071.sdf']

$$$$
136973
     RDKit          3D

 20 22  0  0  0  0  0  0  0  0999 V2000
  -23.6678  -33.7545  -24.1349 C   0  0  0  0  0  0  0  0  0  0  0  0
  -23.8229  -33.7864  -22.6231 C   0  0  2  0  0  0  0  0  0  0  0  0
  -23.9779  -32.4232  -22.1307 N   0  0  0  0  0  0  0  0  0  0  0  0
  -24.5232  -32.3425  -20.7749 C   0  0  1  0  0  0  0  0  0  0  0  0
  -23.4629  -31.9704  -19.7306 C   0  0  0  0  0  0  0  0  0  0  0  0
  -25.6688  -31.3782  -20.7385 C   0  0  0  0  0  0  0  0  0  0  0  0
  -26.4337  -31.0099  -19.6452 C   0  0  0  0  0  0  0  0  0  0  0  0
  -27.5076  -30.2498  -20.0170 N   0  0  0  0  0  0  0  0  0  0  0  0
  -27.4052  -30.1363  -21.3190 C   0  0  0  0  0  0  0  0  0  0  0  0
  -26.2591  -30.7192  -21.7940 N   0  0  0  0  0  0  0  0  0  0  0  0
  -25.7771  -30.5479  -23.1471 C   0  0  0  0  0  0  0  0  0  0  0  0
  -22.6931  -34.4881  -21.9415 C   0  0  0  0  0  0  0  0  0  0  0  0
  -22.7401  -35.7999  -21.5067 C   0  0  0  0  0  0  0  0  0  0  0  0
  -21.6502  -36.1199  -20.7712 O   0  0  0  0  0  0  0  0  0  0  0  0
  -20.8674  -35.0091  -20.7331 C   0  0  0  0  0  0  0  0  0  0  0  0
  -19.6777  -34.8953  -20.0157 C   0  0  0  0  0  0  0  0  0  0  0  0
  -19.0014  -33.6781  -20.1130 C   0  0  0  0  0  0  0  0  0  0  0  0
  -19.4997  -32.6474  -20.9076 C   0  0  0  0  0  0  0  0  0  0  0  0
  -20.6911  -32.7927  -21.6295 C   0  0  0  0  0  0  0  0  0  0  0  0
  -21.4136  -33.9975  -21.5174 C   0  0  0  0  0  0  0  0  0  0  0  0
  2  1  1  6
  2  3  1  0
  3  4  1  0
  4  5  1  1
  4  6  1  0
  6  7  2  0
  7  8  1  0
  8  9  2  0
  9 10  1  0
 10 11  1  0
  2 12  1  0
 12 13  2  0
 13 14  1  0
 14 15  1  0
 15 16  2  0
 16 17  1  0
 17 18  2  0
 18 19  1  0
 19 20  2  0
 10  6  1  0
 20 12  1  0
 20 15  1  0
M  END
>  <HIPPO Pose ID>  (405) 
136973

>  <fragmenstein_outcome>  (405) 
acceptable

>  <energy_score>  (405) 
-27.264443

>  <distance_score>  (405) 
0.927843

>  <fragmenstein_mode>  (405) 
expansion

>  <HIPPO Compound ID>  (405) 
33927

>  <name>  (405) 
TVZRSJJSCPJHCV-RYUDHWBXSA-N

>  <ref_pdb>  (405) 
z0521a

>  <ref_mols>  (405) 
z0521a,3vws-b

>  <csv_name>  (405) 
RdRp_knitwork_green_site_rna_tunnel_pure_split4000_batch000.csv

>  <fragmenstein_runtime>  (405) 
3.183421

>  <tags>  (405) 
['Fragmenstein placed']

>  <original ID>  (405) 
TVZRSJJSCPJHCV-RYUDHWBXSA-N

>  <fragmenstein_error>  (405) 
None

>  <original SMILES>  (405) 
C[C@H](N[C@@H](C)c1cncn1C)c1coc2ccccc12

>  <inchikey>  (405) 
TVZRSJJSCPJHCV-RYUDHWBXSA-N

>  <SLURM_JOB_NAME>  (405) 
BulkDock.place:Flavi_NS5_RdRp:RdRp_knitwork_green_site_rna_tunnel_pure_split4000_batch000

>  <scratch_subdir>  (405) 
/opt/xchem-fragalysis-2/maxwin/BulkDock/SCRATCH/217071/C33927-P141

>  <alias>  (405) 
None

>  <SLURM_JOB_ID>  (405) 
217071

>  <exports>  (405) 
['/opt/xchem-fragalysis-2/maxwin/BulkDock/OUTPUTS/RdRp_knitwork_green_site_rna_tunnel_pure_split4000_batch000_217071.sdf']

$$$$
137176
     RDKit          3D

 21 23  0  0  0  0  0  0  0  0999 V2000
  -27.0456  -35.2151  -17.6387 O   0  0  0  0  0  0  0  0  0  0  0  0
  -25.8106  -34.5721  -18.0309 S   0  0  0  0  0  0  0  0  0  0  0  0
  -24.8537  -35.2405  -18.8850 O   0  0  0  0  0  0  0  0  0  0  0  0
  -25.0258  -34.2037  -16.5831 N   0  0  0  0  0  0  0  0  0  0  0  0
  -23.5653  -34.0000  -16.6100 C   0  0  0  0  0  0  0  0  0  0  0  0
  -23.0850  -33.6239  -15.1963 C   0  0  0  0  0  0  0  0  0  0  0  0
  -21.7414  -32.9483  -15.0747 C   0  0  0  0  0  0  0  0  0  0  0  0
  -20.7102  -33.0816  -16.0064 C   0  0  0  0  0  0  0  0  0  0  0  0
  -19.5124  -32.3867  -15.8221 C   0  0  0  0  0  0  0  0  0  0  0  0
  -19.3746  -31.5749  -14.7074 C   0  0  0  0  0  0  0  0  0  0  0  0
  -20.3410  -31.4273  -13.7802 N   0  0  0  0  0  0  0  0  0  0  0  0
  -21.4794  -32.1382  -13.9666 C   0  0  0  0  0  0  0  0  0  0  0  0
  -26.2452  -33.0139  -18.7557 C   0  0  0  0  0  0  0  0  0  0  0  0
  -25.6536  -32.6455  -19.9713 C   0  0  0  0  0  0  0  0  0  0  0  0
  -26.0244  -31.4593  -20.6068 C   0  0  0  0  0  0  0  0  0  0  0  0
  -26.9729  -30.6720  -19.9681 C   0  0  0  0  0  0  0  0  0  0  0  0
  -27.4288  -29.4807  -20.4337 O   0  0  0  0  0  0  0  0  0  0  0  0
  -28.3926  -29.0735  -19.5729 C   0  0  0  0  0  0  0  0  0  0  0  0
  -28.5518  -29.9784  -18.5468 C   0  0  0  0  0  0  0  0  0  0  0  0
  -27.6103  -31.0179  -18.7825 C   0  0  0  0  0  0  0  0  0  0  0  0
  -27.2483  -32.2266  -18.1540 C   0  0  0  0  0  0  0  0  0  0  0  0
  1  2  2  0
  2  3  2  0
  2  4  1  0
  4  5  1  0
  5  6  1  0
  6  7  1  0
  7  8  2  0
  8  9  1  0
  9 10  2  0
 10 11  1  0
 11 12  2  0
  2 13  1  0
 13 14  2  0
 14 15  1  0
 15 16  2  0
 16 17  1  0
 17 18  1  0
 18 19  2  0
 19 20  1  0
 20 21  2  0
 12  7  1  0
 21 13  1  0
 20 16  1  0
M  END
>  <HIPPO Pose ID>  (406) 
137176

>  <fragmenstein_outcome>  (406) 
acceptable

>  <energy_score>  (406) 
-30.254558

>  <distance_score>  (406) 
0.968721

>  <fragmenstein_mode>  (406) 
expansion

>  <HIPPO Compound ID>  (406) 
29567

>  <name>  (406) 
MDNWZEMGUFOUGR-UHFFFAOYSA-N

>  <ref_pdb>  (406) 
z0386a

>  <ref_mols>  (406) 
z0386a,3vws-a

>  <csv_name>  (406) 
RdRp_knitwork_green_site_rna_tunnel_pure_split4000_batch006.csv

>  <fragmenstein_runtime>  (406) 
51.529912

>  <tags>  (406) 
['Fragmenstein placed']

>  <original ID>  (406) 
MDNWZEMGUFOUGR-UHFFFAOYSA-N

>  <fragmenstein_error>  (406) 
None

>  <original SMILES>  (406) 
O=S(=O)(NCCc1cccnc1)c1ccc2occc2c1

>  <inchikey>  (406) 
MDNWZEMGUFOUGR-UHFFFAOYSA-N

>  <SLURM_JOB_NAME>  (406) 
BulkDock.place:Flavi_NS5_RdRp:RdRp_knitwork_green_site_rna_tunnel_pure_split4000_batch006

>  <scratch_subdir>  (406) 
/opt/xchem-fragalysis-2/maxwin/BulkDock/SCRATCH/217077/C29567-P121

>  <alias>  (406) 
None

>  <SLURM_JOB_ID>  (406) 
217077

>  <exports>  (406) 
['/opt/xchem-fragalysis-2/maxwin/BulkDock/OUTPUTS/RdRp_knitwork_green_site_rna_tunnel_pure_split4000_batch006_217077.sdf']

$$$$
137202
     RDKit          3D

 22 24  0  0  0  0  0  0  0  0999 V2000
  -29.3170  -33.7207  -15.5617 C   0  0  0  0  0  0  0  0  0  0  0  0
  -30.0819  -32.5788  -14.9082 C   0  0  0  0  0  0  0  0  0  0  0  0
  -30.4430  -31.4751  -15.9023 C   0  0  0  0  0  0  0  0  0  0  0  0
  -29.2435  -30.7017  -16.4230 C   0  0  0  0  0  0  0  0  0  0  0  0
  -29.2275  -30.3700  -17.8807 C   0  0  0  0  0  0  0  0  0  0  0  0
  -28.1368  -29.7498  -18.3776 C   0  0  0  0  0  0  0  0  0  0  0  0
  -27.9584  -29.4773  -19.7684 N   0  0  0  0  0  0  0  0  0  0  0  0
  -29.1130  -29.5064  -20.6774 C   0  0  0  0  0  0  0  0  0  0  0  0
  -26.6788  -29.9183  -20.4010 C   0  0  1  0  0  0  0  0  0  0  0  0
  -26.6248  -31.4587  -20.4462 C   0  0  0  0  0  0  0  0  0  0  0  0
  -26.4011  -29.2549  -21.7297 C   0  0  0  0  0  0  0  0  0  0  0  0
  -26.6318  -29.8952  -22.9494 C   0  0  0  0  0  0  0  0  0  0  0  0
  -26.1138  -29.3801  -24.1288 C   0  0  0  0  0  0  0  0  0  0  0  0
  -25.3916  -28.2082  -24.0433 C   0  0  0  0  0  0  0  0  0  0  0  0
  -25.2762  -27.4770  -22.9109 N   0  0  0  0  0  0  0  0  0  0  0  0
  -25.7666  -28.0198  -21.7758 C   0  0  0  0  0  0  0  0  0  0  0  0
  -27.1105  -29.4198  -17.4448 N   0  0  0  0  0  0  0  0  0  0  0  0
  -25.9259  -28.7760  -17.6360 N   0  0  0  0  0  0  0  0  0  0  0  0
  -25.3503  -28.8683  -16.4417 C   0  0  0  0  0  0  0  0  0  0  0  0
  -26.0976  -29.4486  -15.4689 N   0  0  0  0  0  0  0  0  0  0  0  0
  -27.2154  -29.7631  -16.0876 C   0  0  0  0  0  0  0  0  0  0  0  0
  -28.3165  -30.3757  -15.5772 N   0  0  0  0  0  0  0  0  0  0  0  0
  1  2  1  0
  2  3  1  0
  3  4  1  0
  4  5  1  0
  5  6  2  0
  6  7  1  0
  7  8  1  0
  7  9  1  0
  9 10  1  6
  9 11  1  0
 11 12  2  0
 12 13  1  0
 13 14  2  0
 14 15  1  0
 15 16  2  0
  6 17  1  0
 17 18  1  0
 18 19  2  0
 19 20  1  0
 20 21  2  0
 21 22  1  0
 22  4  2  0
 16 11  1  0
 21 17  1  0
M  END
>  <HIPPO Pose ID>  (407) 
137202

>  <fragmenstein_outcome>  (407) 
acceptable

>  <energy_score>  (407) 
-68.837144

>  <distance_score>  (407) 
0.932793

>  <fragmenstein_mode>  (407) 
expansion

>  <HIPPO Compound ID>  (407) 
46622

>  <name>  (407) 
DGQGRFJVMPVUAU-LBPRGKRZSA-N

>  <ref_pdb>  (407) 
z0221a

>  <ref_mols>  (407) 
z0221a,z0521a

>  <csv_name>  (407) 
RdRp_knitwork_green_site_rna_tunnel_pure_split4000_batch005.csv

>  <fragmenstein_runtime>  (407) 
2.748469

>  <tags>  (407) 
['Fragmenstein placed']

>  <original ID>  (407) 
DGQGRFJVMPVUAU-LBPRGKRZSA-N

>  <fragmenstein_error>  (407) 
None

>  <original SMILES>  (407) 
CCCc1cc(N(C)[C@@H](C)c2cccnc2)n2ncnc2n1

>  <inchikey>  (407) 
DGQGRFJVMPVUAU-LBPRGKRZSA-N

>  <SLURM_JOB_NAME>  (407) 
BulkDock.place:Flavi_NS5_RdRp:RdRp_knitwork_green_site_rna_tunnel_pure_split4000_batch005

>  <scratch_subdir>  (407) 
/opt/xchem-fragalysis-2/maxwin/BulkDock/SCRATCH/217076/C46622-P105

>  <alias>  (407) 
None

>  <SLURM_JOB_ID>  (407) 
217076

>  <exports>  (407) 
['/opt/xchem-fragalysis-2/maxwin/BulkDock/OUTPUTS/RdRp_knitwork_green_site_rna_tunnel_pure_split4000_batch005_217076.sdf']

$$$$
137218
     RDKit          3D

 21 23  0  0  0  0  0  0  0  0999 V2000
  -26.8516  -34.8523  -17.7888 O   0  0  0  0  0  0  0  0  0  0  0  0
  -25.5580  -34.2526  -18.0372 S   0  0  0  0  0  0  0  0  0  0  0  0
  -24.5609  -34.9315  -18.8305 O   0  0  0  0  0  0  0  0  0  0  0  0
  -24.8945  -33.8028  -16.5826 N   0  0  0  0  0  0  0  0  0  0  0  0
  -23.4699  -33.4860  -16.4625 C   0  0  0  0  0  0  0  0  0  0  0  0
  -23.3038  -32.3082  -15.5015 C   0  0  0  0  0  0  0  0  0  0  0  0
  -21.8944  -31.8099  -15.3212 C   0  0  0  0  0  0  0  0  0  0  0  0
  -21.0596  -31.4999  -16.3972 C   0  0  0  0  0  0  0  0  0  0  0  0
  -19.8005  -30.9473  -16.1636 C   0  0  0  0  0  0  0  0  0  0  0  0
  -19.4108  -30.7088  -14.8566 C   0  0  0  0  0  0  0  0  0  0  0  0
  -20.1833  -31.0027  -13.7915 N   0  0  0  0  0  0  0  0  0  0  0  0
  -21.3993  -31.5382  -14.0480 C   0  0  0  0  0  0  0  0  0  0  0  0
  -25.8581  -32.6686  -18.7788 C   0  0  0  0  0  0  0  0  0  0  0  0
  -24.8634  -32.0791  -19.5686 C   0  0  0  0  0  0  0  0  0  0  0  0
  -25.0853  -30.8450  -20.1822 C   0  0  0  0  0  0  0  0  0  0  0  0
  -26.3439  -30.2806  -19.9941 C   0  0  0  0  0  0  0  0  0  0  0  0
  -26.7652  -29.1108  -20.5407 O   0  0  0  0  0  0  0  0  0  0  0  0
  -28.0621  -28.9611  -20.1785 C   0  0  0  0  0  0  0  0  0  0  0  0
  -28.4805  -29.9910  -19.3709 C   0  0  0  0  0  0  0  0  0  0  0  0
  -27.3639  -30.8551  -19.2422 C   0  0  0  0  0  0  0  0  0  0  0  0
  -27.1183  -32.0749  -18.5993 C   0  0  0  0  0  0  0  0  0  0  0  0
  1  2  2  0
  2  3  2  0
  2  4  1  0
  4  5  1  0
  5  6  1  0
  6  7  1  0
  7  8  2  0
  8  9  1  0
  9 10  2  0
 10 11  1  0
 11 12  2  0
  2 13  1  0
 13 14  2  0
 14 15  1  0
 15 16  2  0
 16 17  1  0
 17 18  1  0
 18 19  2  0
 19 20  1  0
 20 21  2  0
 12  7  1  0
 21 13  1  0
 20 16  1  0
M  END
>  <HIPPO Pose ID>  (408) 
137218

>  <fragmenstein_outcome>  (408) 
acceptable

>  <energy_score>  (408) 
-31.221078

>  <distance_score>  (408) 
0.848903

>  <fragmenstein_mode>  (408) 
expansion

>  <HIPPO Compound ID>  (408) 
29567

>  <name>  (408) 
MDNWZEMGUFOUGR-UHFFFAOYSA-N

>  <ref_pdb>  (408) 
3vws-a

>  <ref_mols>  (408) 
z0386a,3vws-a

>  <csv_name>  (408) 
RdRp_knitwork_green_site_rna_tunnel_pure_split4000_batch006.csv

>  <fragmenstein_runtime>  (408) 
42.44189

>  <tags>  (408) 
['Fragmenstein placed']

>  <original ID>  (408) 
MDNWZEMGUFOUGR-UHFFFAOYSA-N

>  <fragmenstein_error>  (408) 
None

>  <original SMILES>  (408) 
O=S(=O)(NCCc1cccnc1)c1ccc2occc2c1

>  <inchikey>  (408) 
MDNWZEMGUFOUGR-UHFFFAOYSA-N

>  <SLURM_JOB_NAME>  (408) 
BulkDock.place:Flavi_NS5_RdRp:RdRp_knitwork_green_site_rna_tunnel_pure_split4000_batch006

>  <scratch_subdir>  (408) 
/opt/xchem-fragalysis-2/maxwin/BulkDock/SCRATCH/217077/C29567-P218

>  <alias>  (408) 
None

>  <SLURM_JOB_ID>  (408) 
217077

>  <exports>  (408) 
['/opt/xchem-fragalysis-2/maxwin/BulkDock/OUTPUTS/RdRp_knitwork_green_site_rna_tunnel_pure_split4000_batch006_217077.sdf']

$$$$
137224
     RDKit          3D

 23 25  0  0  0  0  0  0  0  0999 V2000
  -22.0489  -30.5521  -12.0510 C   0  0  0  0  0  0  0  0  0  0  0  0
  -22.3410  -31.5609  -13.0167 O   0  0  0  0  0  0  0  0  0  0  0  0
  -21.3497  -31.8788  -13.9127 C   0  0  0  0  0  0  0  0  0  0  0  0
  -20.0771  -31.2980  -13.8817 C   0  0  0  0  0  0  0  0  0  0  0  0
  -19.1833  -31.6091  -14.8844 C   0  0  0  0  0  0  0  0  0  0  0  0
  -19.4719  -32.4529  -15.8915 N   0  0  0  0  0  0  0  0  0  0  0  0
  -20.6883  -33.0456  -15.8819 C   0  0  0  0  0  0  0  0  0  0  0  0
  -21.6829  -32.7906  -14.9411 C   0  0  0  0  0  0  0  0  0  0  0  0
  -23.0447  -33.4561  -15.0306 C   0  0  0  0  0  0  0  0  0  0  0  0
  -23.5193  -33.9137  -16.4322 C   0  0  0  0  0  0  0  0  0  0  0  0
  -24.9838  -34.1076  -16.4337 N   0  0  0  0  0  0  0  0  0  0  0  0
  -25.7383  -34.5375  -17.8857 S   0  0  0  0  0  0  0  0  0  0  0  0
  -26.9623  -35.2041  -17.4971 O   0  0  0  0  0  0  0  0  0  0  0  0
  -24.7543  -35.2014  -18.7122 O   0  0  0  0  0  0  0  0  0  0  0  0
  -26.2124  -33.0152  -18.6638 C   0  0  0  0  0  0  0  0  0  0  0  0
  -25.6206  -32.6634  -19.8846 C   0  0  0  0  0  0  0  0  0  0  0  0
  -26.0155  -31.5029  -20.5537 C   0  0  0  0  0  0  0  0  0  0  0  0
  -26.9937  -30.7263  -19.9463 C   0  0  0  0  0  0  0  0  0  0  0  0
  -27.4819  -29.5620  -20.4483 O   0  0  0  0  0  0  0  0  0  0  0  0
  -28.4728  -29.1661  -19.6125 C   0  0  0  0  0  0  0  0  0  0  0  0
  -28.6103  -30.0446  -18.5608 C   0  0  0  0  0  0  0  0  0  0  0  0
  -27.6337  -31.0597  -18.7583 C   0  0  0  0  0  0  0  0  0  0  0  0
  -27.2431  -32.2398  -18.0934 C   0  0  0  0  0  0  0  0  0  0  0  0
  1  2  1  0
  2  3  1  0
  3  4  2  0
  4  5  1  0
  5  6  2  0
  6  7  1  0
  7  8  2  0
  8  9  1  0
  9 10  1  0
 10 11  1  0
 11 12  1  0
 12 13  2  0
 12 14  2  0
 12 15  1  0
 15 16  2  0
 16 17  1  0
 17 18  2  0
 18 19  1  0
 19 20  1  0
 20 21  2  0
 21 22  1  0
 22 23  2  0
  8  3  1  0
 23 15  1  0
 22 18  1  0
M  END
>  <HIPPO Pose ID>  (409) 
137224

>  <fragmenstein_outcome>  (409) 
acceptable

>  <energy_score>  (409) 
-40.652173

>  <distance_score>  (409) 
0.944376

>  <fragmenstein_mode>  (409) 
expansion

>  <HIPPO Compound ID>  (409) 
29700

>  <name>  (409) 
XEZPUWVHMLXULA-UHFFFAOYSA-N

>  <ref_pdb>  (409) 
z0386a

>  <ref_mols>  (409) 
z0386a,3vws-a

>  <csv_name>  (409) 
RdRp_knitwork_green_site_rna_tunnel_pure_split4000_batch006.csv

>  <fragmenstein_runtime>  (409) 
10.193337

>  <tags>  (409) 
['Fragmenstein placed']

>  <original ID>  (409) 
XEZPUWVHMLXULA-UHFFFAOYSA-N

>  <fragmenstein_error>  (409) 
None

>  <original SMILES>  (409) 
COc1ccncc1CCNS(=O)(=O)c1ccc2occc2c1

>  <inchikey>  (409) 
XEZPUWVHMLXULA-UHFFFAOYSA-N

>  <SLURM_JOB_NAME>  (409) 
BulkDock.place:Flavi_NS5_RdRp:RdRp_knitwork_green_site_rna_tunnel_pure_split4000_batch006

>  <scratch_subdir>  (409) 
/opt/xchem-fragalysis-2/maxwin/BulkDock/SCRATCH/217077/C29700-P121

>  <alias>  (409) 
None

>  <SLURM_JOB_ID>  (409) 
217077

>  <exports>  (409) 
['/opt/xchem-fragalysis-2/maxwin/BulkDock/OUTPUTS/RdRp_knitwork_green_site_rna_tunnel_pure_split4000_batch006_217077.sdf']

$$$$
137227
     RDKit          3D

 22 23  0  0  0  0  0  0  0  0999 V2000
  -28.9095  -29.9865  -16.0722 C   0  0  0  0  0  0  0  0  0  0  0  0
  -28.5605  -31.0302  -17.0274 N   0  0  0  0  0  0  0  0  0  0  0  0
  -29.4623  -32.1805  -17.0098 C   0  0  0  0  0  0  0  0  0  0  0  0
  -28.3803  -30.5435  -18.3321 C   0  0  0  0  0  0  0  0  0  0  0  0
  -29.4607  -30.1464  -19.0967 C   0  0  0  0  0  0  0  0  0  0  0  0
  -29.2002  -29.7956  -20.3925 C   0  0  0  0  0  0  0  0  0  0  0  0
  -27.9857  -29.8813  -20.9393 N   0  0  0  0  0  0  0  0  0  0  0  0
  -26.9994  -30.3044  -20.1427 C   0  0  0  0  0  0  0  0  0  0  0  0
  -25.7969  -30.6139  -20.7260 N   0  0  0  0  0  0  0  0  0  0  0  0
  -25.4353  -30.8573  -22.2179 C   0  0  0  0  0  0  0  0  0  0  0  0
  -26.0750  -30.7573  -23.1563 O   0  0  0  0  0  0  0  0  0  0  0  0
  -23.9761  -31.3760  -22.0457 N   0  0  0  0  0  0  0  0  0  0  0  0
  -23.0752  -31.9568  -23.0054 C   0  0  0  0  0  0  0  0  0  0  0  0
  -21.5949  -32.1131  -22.6363 C   0  0  2  0  0  0  0  0  0  0  0  0
  -20.9602  -32.8686  -23.6936 O   0  0  0  0  0  0  0  0  0  0  0  0
  -21.4107  -32.8339  -21.3012 C   0  0  0  0  0  0  0  0  0  0  0  0
  -20.0185  -32.9987  -20.9098 N   0  0  0  0  0  0  0  0  0  0  0  0
  -19.3236  -34.1770  -20.8795 C   0  0  0  0  0  0  0  0  0  0  0  0
  -18.0592  -33.8727  -20.4391 C   0  0  0  0  0  0  0  0  0  0  0  0
  -18.0929  -32.4876  -20.2114 C   0  0  0  0  0  0  0  0  0  0  0  0
  -19.2976  -31.9571  -20.4380 N   0  0  0  0  0  0  0  0  0  0  0  0
  -27.1335  -30.5883  -18.8399 N   0  0  0  0  0  0  0  0  0  0  0  0
  1  2  1  0
  2  3  1  0
  2  4  1  0
  4  5  2  0
  5  6  1  0
  6  7  2  0
  7  8  1  0
  8  9  1  0
  9 10  1  0
 10 11  2  0
 10 12  1  0
 12 13  1  0
 13 14  1  0
 14 15  1  6
 14 16  1  0
 16 17  1  0
 17 18  1  0
 18 19  2  0
 19 20  1  0
 20 21  2  0
  8 22  2  0
 22  4  1  0
 21 17  1  0
M  END
>  <HIPPO Pose ID>  (410) 
137227

>  <fragmenstein_outcome>  (410) 
acceptable

>  <energy_score>  (410) 
-23.363826

>  <distance_score>  (410) 
0.939536

>  <fragmenstein_mode>  (410) 
expansion

>  <HIPPO Compound ID>  (410) 
30603

>  <name>  (410) 
SUPHEYWQSDRUHB-JTQLQIEISA-N

>  <ref_pdb>  (410) 
z0653a

>  <ref_mols>  (410) 
z0211a,z0653a

>  <csv_name>  (410) 
RdRp_knitwork_green_site_rna_tunnel_pure_split4000_batch013.csv

>  <fragmenstein_runtime>  (410) 
7.091232

>  <tags>  (410) 
['Fragmenstein placed']

>  <original ID>  (410) 
SUPHEYWQSDRUHB-JTQLQIEISA-N

>  <fragmenstein_error>  (410) 
None

>  <original SMILES>  (410) 
CN(C)c1ccnc(NC(=O)NC[C@H](O)Cn2cccn2)n1

>  <inchikey>  (410) 
SUPHEYWQSDRUHB-JTQLQIEISA-N

>  <SLURM_JOB_NAME>  (410) 
BulkDock.place:Flavi_NS5_RdRp:RdRp_knitwork_green_site_rna_tunnel_pure_split4000_batch013

>  <scratch_subdir>  (410) 
/opt/xchem-fragalysis-2/maxwin/BulkDock/SCRATCH/217084/C30603-P153

>  <alias>  (410) 
None

>  <SLURM_JOB_ID>  (410) 
217084

>  <exports>  (410) 
['/opt/xchem-fragalysis-2/maxwin/BulkDock/OUTPUTS/RdRp_knitwork_green_site_rna_tunnel_pure_split4000_batch013_217084.sdf']

$$$$
137245
     RDKit          3D

 23 25  0  0  0  0  0  0  0  0999 V2000
  -21.8367  -29.8889  -12.4529 C   0  0  0  0  0  0  0  0  0  0  0  0
  -22.1887  -30.9158  -13.3666 O   0  0  0  0  0  0  0  0  0  0  0  0
  -21.2730  -31.1657  -14.3590 C   0  0  0  0  0  0  0  0  0  0  0  0
  -20.0044  -30.5823  -14.4176 C   0  0  0  0  0  0  0  0  0  0  0  0
  -19.1600  -30.9305  -15.4506 C   0  0  0  0  0  0  0  0  0  0  0  0
  -19.4912  -31.8254  -16.3991 N   0  0  0  0  0  0  0  0  0  0  0  0
  -20.7253  -32.3738  -16.3267 C   0  0  0  0  0  0  0  0  0  0  0  0
  -21.6726  -32.0737  -15.3517 C   0  0  0  0  0  0  0  0  0  0  0  0
  -23.0719  -32.6551  -15.3482 C   0  0  0  0  0  0  0  0  0  0  0  0
  -23.4493  -33.5007  -16.5672 C   0  0  0  0  0  0  0  0  0  0  0  0
  -24.8898  -33.7570  -16.6011 N   0  0  0  0  0  0  0  0  0  0  0  0
  -25.5892  -34.2407  -18.0354 S   0  0  0  0  0  0  0  0  0  0  0  0
  -26.8779  -34.8343  -17.7538 O   0  0  0  0  0  0  0  0  0  0  0  0
  -24.6069  -34.9358  -18.8338 O   0  0  0  0  0  0  0  0  0  0  0  0
  -25.8992  -32.6705  -18.8021 C   0  0  0  0  0  0  0  0  0  0  0  0
  -24.9160  -32.0990  -19.6199 C   0  0  0  0  0  0  0  0  0  0  0  0
  -25.1362  -30.8676  -20.2379 C   0  0  0  0  0  0  0  0  0  0  0  0
  -26.3846  -30.2897  -20.0285 C   0  0  0  0  0  0  0  0  0  0  0  0
  -26.8044  -29.1202  -20.5758 O   0  0  0  0  0  0  0  0  0  0  0  0
  -28.0938  -28.9578  -20.1944 C   0  0  0  0  0  0  0  0  0  0  0  0
  -28.5073  -29.9769  -19.3710 C   0  0  0  0  0  0  0  0  0  0  0  0
  -27.3961  -30.8490  -19.2538 C   0  0  0  0  0  0  0  0  0  0  0  0
  -27.1502  -32.0650  -18.6041 C   0  0  0  0  0  0  0  0  0  0  0  0
  1  2  1  0
  2  3  1  0
  3  4  2  0
  4  5  1  0
  5  6  2  0
  6  7  1  0
  7  8  2  0
  8  9  1  0
  9 10  1  0
 10 11  1  0
 11 12  1  0
 12 13  2  0
 12 14  2  0
 12 15  1  0
 15 16  2  0
 16 17  1  0
 17 18  2  0
 18 19  1  0
 19 20  1  0
 20 21  2  0
 21 22  1  0
 22 23  2  0
  8  3  1  0
 23 15  1  0
 22 18  1  0
M  END
>  <HIPPO Pose ID>  (411) 
137245

>  <fragmenstein_outcome>  (411) 
acceptable

>  <energy_score>  (411) 
-41.293887

>  <distance_score>  (411) 
0.763411

>  <fragmenstein_mode>  (411) 
expansion

>  <HIPPO Compound ID>  (411) 
29700

>  <name>  (411) 
XEZPUWVHMLXULA-UHFFFAOYSA-N

>  <ref_pdb>  (411) 
3vws-a

>  <ref_mols>  (411) 
z0386a,3vws-a

>  <csv_name>  (411) 
RdRp_knitwork_green_site_rna_tunnel_pure_split4000_batch006.csv

>  <fragmenstein_runtime>  (411) 
10.344496

>  <tags>  (411) 
['Fragmenstein placed']

>  <original ID>  (411) 
XEZPUWVHMLXULA-UHFFFAOYSA-N

>  <fragmenstein_error>  (411) 
None

>  <original SMILES>  (411) 
COc1ccncc1CCNS(=O)(=O)c1ccc2occc2c1

>  <inchikey>  (411) 
XEZPUWVHMLXULA-UHFFFAOYSA-N

>  <SLURM_JOB_NAME>  (411) 
BulkDock.place:Flavi_NS5_RdRp:RdRp_knitwork_green_site_rna_tunnel_pure_split4000_batch006

>  <scratch_subdir>  (411) 
/opt/xchem-fragalysis-2/maxwin/BulkDock/SCRATCH/217077/C29700-P218

>  <alias>  (411) 
None

>  <SLURM_JOB_ID>  (411) 
217077

>  <exports>  (411) 
['/opt/xchem-fragalysis-2/maxwin/BulkDock/OUTPUTS/RdRp_knitwork_green_site_rna_tunnel_pure_split4000_batch006_217077.sdf']

$$$$
137258
     RDKit          3D

 20 21  0  0  0  0  0  0  0  0999 V2000
  -26.1025  -30.9838  -23.0723 O   0  0  0  0  0  0  0  0  0  0  0  0
  -25.3857  -30.9476  -22.1853 C   0  0  0  0  0  0  0  0  0  0  0  0
  -23.8903  -31.3551  -22.0867 N   0  0  0  0  0  0  0  0  0  0  0  0
  -23.0270  -31.9772  -23.0582 C   0  0  0  0  0  0  0  0  0  0  0  0
  -21.5569  -32.1583  -22.6714 C   0  0  2  0  0  0  0  0  0  0  0  0
  -20.9425  -32.9482  -23.7098 O   0  0  0  0  0  0  0  0  0  0  0  0
  -21.4266  -32.8798  -21.3288 C   0  0  0  0  0  0  0  0  0  0  0  0
  -20.0522  -33.0375  -20.8787 N   0  0  0  0  0  0  0  0  0  0  0  0
  -19.4042  -34.2196  -20.6527 C   0  0  0  0  0  0  0  0  0  0  0  0
  -18.1334  -33.8950  -20.2451 C   0  0  0  0  0  0  0  0  0  0  0  0
  -18.1128  -32.4911  -20.2459 C   0  0  0  0  0  0  0  0  0  0  0  0
  -19.2834  -31.9603  -20.6096 N   0  0  0  0  0  0  0  0  0  0  0  0
  -25.6475  -30.5717  -20.6913 N   0  0  0  0  0  0  0  0  0  0  0  0
  -26.8364  -30.2730  -20.0332 C   0  0  0  0  0  0  0  0  0  0  0  0
  -27.9902  -30.0098  -20.7713 C   0  0  0  0  0  0  0  0  0  0  0  0
  -29.2320  -29.9465  -20.1440 C   0  0  0  0  0  0  0  0  0  0  0  0
  -29.3205  -30.1234  -18.7698 C   0  0  0  0  0  0  0  0  0  0  0  0
  -28.1574  -30.2957  -18.0263 C   0  0  0  0  0  0  0  0  0  0  0  0
  -28.3093  -30.5105  -16.1623 Br  0  0  0  0  0  0  0  0  0  0  0  0
  -26.9069  -30.3594  -18.6449 C   0  0  0  0  0  0  0  0  0  0  0  0
  1  2  2  0
  2  3  1  0
  3  4  1  0
  4  5  1  0
  5  6  1  6
  5  7  1  0
  7  8  1  0
  8  9  1  0
  9 10  2  0
 10 11  1  0
 11 12  2  0
  2 13  1  0
 13 14  1  0
 14 15  2  0
 15 16  1  0
 16 17  2  0
 17 18  1  0
 18 19  1  0
 18 20  2  0
 12  8  1  0
 20 14  1  0
M  END
>  <HIPPO Pose ID>  (412) 
137258

>  <fragmenstein_outcome>  (412) 
acceptable

>  <energy_score>  (412) 
-16.05003

>  <distance_score>  (412) 
0.783582

>  <fragmenstein_mode>  (412) 
expansion

>  <HIPPO Compound ID>  (412) 
30886

>  <name>  (412) 
RZNUNGVJBGAINS-LBPRGKRZSA-N

>  <ref_pdb>  (412) 
z0653a

>  <ref_mols>  (412) 
z0211a,z0653a

>  <csv_name>  (412) 
RdRp_knitwork_green_site_rna_tunnel_pure_split4000_batch013.csv

>  <fragmenstein_runtime>  (412) 
3.840106

>  <tags>  (412) 
['Fragmenstein placed']

>  <original ID>  (412) 
RZNUNGVJBGAINS-LBPRGKRZSA-N

>  <fragmenstein_error>  (412) 
None

>  <original SMILES>  (412) 
O=C(NC[C@H](O)Cn1cccn1)Nc1cccc(Br)c1

>  <inchikey>  (412) 
RZNUNGVJBGAINS-LBPRGKRZSA-N

>  <SLURM_JOB_NAME>  (412) 
BulkDock.place:Flavi_NS5_RdRp:RdRp_knitwork_green_site_rna_tunnel_pure_split4000_batch013

>  <scratch_subdir>  (412) 
/opt/xchem-fragalysis-2/maxwin/BulkDock/SCRATCH/217084/C30886-P153

>  <alias>  (412) 
None

>  <SLURM_JOB_ID>  (412) 
217084

>  <exports>  (412) 
['/opt/xchem-fragalysis-2/maxwin/BulkDock/OUTPUTS/RdRp_knitwork_green_site_rna_tunnel_pure_split4000_batch013_217084.sdf']

$$$$
137293
     RDKit          3D

 24 26  0  0  0  0  0  0  0  0999 V2000
  -22.8427  -32.1509  -12.0283 C   0  0  0  0  0  0  0  0  0  0  0  0
  -22.4361  -31.2141  -13.0761 N   0  0  0  0  0  0  0  0  0  0  0  0
  -22.0059  -29.9234  -12.5056 C   0  0  0  0  0  0  0  0  0  0  0  0
  -21.4397  -31.7744  -13.9193 C   0  0  0  0  0  0  0  0  0  0  0  0
  -20.2120  -31.1898  -13.8863 N   0  0  0  0  0  0  0  0  0  0  0  0
  -19.2519  -31.6004  -14.7339 C   0  0  0  0  0  0  0  0  0  0  0  0
  -19.4505  -32.5880  -15.6704 C   0  0  0  0  0  0  0  0  0  0  0  0
  -20.6996  -33.1953  -15.7272 C   0  0  0  0  0  0  0  0  0  0  0  0
  -21.7370  -32.7919  -14.8657 C   0  0  0  0  0  0  0  0  0  0  0  0
  -23.1089  -33.4344  -15.0086 C   0  0  0  0  0  0  0  0  0  0  0  0
  -23.5427  -33.8962  -16.4210 C   0  0  0  0  0  0  0  0  0  0  0  0
  -25.0063  -34.1021  -16.4496 N   0  0  0  0  0  0  0  0  0  0  0  0
  -25.7361  -34.5301  -17.9116 S   0  0  0  0  0  0  0  0  0  0  0  0
  -26.9586  -35.2105  -17.5416 O   0  0  0  0  0  0  0  0  0  0  0  0
  -24.7368  -35.1810  -18.7300 O   0  0  0  0  0  0  0  0  0  0  0  0
  -26.2146  -33.0070  -18.6844 C   0  0  0  0  0  0  0  0  0  0  0  0
  -25.6215  -32.6481  -19.9024 C   0  0  0  0  0  0  0  0  0  0  0  0
  -26.0186  -31.4857  -20.5665 C   0  0  0  0  0  0  0  0  0  0  0  0
  -26.9998  -30.7148  -19.9570 C   0  0  0  0  0  0  0  0  0  0  0  0
  -27.4906  -29.5502  -20.4552 O   0  0  0  0  0  0  0  0  0  0  0  0
  -28.4859  -29.1622  -19.6211 C   0  0  0  0  0  0  0  0  0  0  0  0
  -28.6216  -30.0445  -18.5723 C   0  0  0  0  0  0  0  0  0  0  0  0
  -27.6408  -31.0551  -18.7716 C   0  0  0  0  0  0  0  0  0  0  0  0
  -27.2477  -32.2368  -18.1113 C   0  0  0  0  0  0  0  0  0  0  0  0
  1  2  1  0
  2  3  1  0
  2  4  1  0
  4  5  2  0
  5  6  1  0
  6  7  2  0
  7  8  1  0
  8  9  2  0
  9 10  1  0
 10 11  1  0
 11 12  1  0
 12 13  1  0
 13 14  2  0
 13 15  2  0
 13 16  1  0
 16 17  2  0
 17 18  1  0
 18 19  2  0
 19 20  1  0
 20 21  1  0
 21 22  2  0
 22 23  1  0
 23 24  2  0
  9  4  1  0
 24 16  1  0
 23 19  1  0
M  END
>  <HIPPO Pose ID>  (413) 
137293

>  <fragmenstein_outcome>  (413) 
acceptable

>  <energy_score>  (413) 
-69.618151

>  <distance_score>  (413) 
0.966261

>  <fragmenstein_mode>  (413) 
expansion

>  <HIPPO Compound ID>  (413) 
29732

>  <name>  (413) 
FVRIBDJZGWKKLO-UHFFFAOYSA-N

>  <ref_pdb>  (413) 
z0386a

>  <ref_mols>  (413) 
z0386a,3vws-a

>  <csv_name>  (413) 
RdRp_knitwork_green_site_rna_tunnel_pure_split4000_batch006.csv

>  <fragmenstein_runtime>  (413) 
45.703285

>  <tags>  (413) 
['Fragmenstein placed']

>  <original ID>  (413) 
FVRIBDJZGWKKLO-UHFFFAOYSA-N

>  <fragmenstein_error>  (413) 
None

>  <original SMILES>  (413) 
CN(C)c1ncccc1CCNS(=O)(=O)c1ccc2occc2c1

>  <inchikey>  (413) 
FVRIBDJZGWKKLO-UHFFFAOYSA-N

>  <SLURM_JOB_NAME>  (413) 
BulkDock.place:Flavi_NS5_RdRp:RdRp_knitwork_green_site_rna_tunnel_pure_split4000_batch006

>  <scratch_subdir>  (413) 
/opt/xchem-fragalysis-2/maxwin/BulkDock/SCRATCH/217077/C29732-P121

>  <alias>  (413) 
None

>  <SLURM_JOB_ID>  (413) 
217077

>  <exports>  (413) 
['/opt/xchem-fragalysis-2/maxwin/BulkDock/OUTPUTS/RdRp_knitwork_green_site_rna_tunnel_pure_split4000_batch006_217077.sdf']

$$$$
137330
     RDKit          3D

 24 26  0  0  0  0  0  0  0  0999 V2000
  -22.3284  -32.4642  -13.0838 C   0  0  0  0  0  0  0  0  0  0  0  0
  -22.3315  -31.0850  -13.5603 N   0  0  0  0  0  0  0  0  0  0  0  0
  -21.9068  -30.0961  -12.5668 C   0  0  0  0  0  0  0  0  0  0  0  0
  -21.4496  -31.0560  -14.6786 C   0  0  0  0  0  0  0  0  0  0  0  0
  -20.1922  -30.5873  -14.4876 N   0  0  0  0  0  0  0  0  0  0  0  0
  -19.3341  -30.5983  -15.5225 C   0  0  0  0  0  0  0  0  0  0  0  0
  -19.6649  -31.0941  -16.7668 C   0  0  0  0  0  0  0  0  0  0  0  0
  -20.9542  -31.5768  -16.9669 C   0  0  0  0  0  0  0  0  0  0  0  0
  -21.8823  -31.5595  -15.9183 C   0  0  0  0  0  0  0  0  0  0  0  0
  -23.3081  -32.0036  -16.1660 C   0  0  0  0  0  0  0  0  0  0  0  0
  -23.4427  -33.4684  -16.5786 C   0  0  0  0  0  0  0  0  0  0  0  0
  -24.8569  -33.8406  -16.6452 N   0  0  0  0  0  0  0  0  0  0  0  0
  -25.5796  -34.2712  -18.0759 S   0  0  0  0  0  0  0  0  0  0  0  0
  -26.8761  -34.8445  -17.7860 O   0  0  0  0  0  0  0  0  0  0  0  0
  -24.6270  -34.9730  -18.9037 O   0  0  0  0  0  0  0  0  0  0  0  0
  -25.8695  -32.6853  -18.8152 C   0  0  0  0  0  0  0  0  0  0  0  0
  -24.8799  -32.1134  -19.6244 C   0  0  0  0  0  0  0  0  0  0  0  0
  -25.0911  -30.8742  -20.2309 C   0  0  0  0  0  0  0  0  0  0  0  0
  -26.3365  -30.2891  -20.0196 C   0  0  0  0  0  0  0  0  0  0  0  0
  -26.7467  -29.1107  -20.5556 O   0  0  0  0  0  0  0  0  0  0  0  0
  -28.0348  -28.9404  -20.1719 C   0  0  0  0  0  0  0  0  0  0  0  0
  -28.4586  -29.9675  -19.3638 C   0  0  0  0  0  0  0  0  0  0  0  0
  -27.3535  -30.8484  -19.2524 C   0  0  0  0  0  0  0  0  0  0  0  0
  -27.1166  -32.0719  -18.6135 C   0  0  0  0  0  0  0  0  0  0  0  0
  1  2  1  0
  2  3  1  0
  2  4  1  0
  4  5  2  0
  5  6  1  0
  6  7  2  0
  7  8  1  0
  8  9  2  0
  9 10  1  0
 10 11  1  0
 11 12  1  0
 12 13  1  0
 13 14  2  0
 13 15  2  0
 13 16  1  0
 16 17  2  0
 17 18  1  0
 18 19  2  0
 19 20  1  0
 20 21  1  0
 21 22  2  0
 22 23  1  0
 23 24  2  0
  9  4  1  0
 24 16  1  0
 23 19  1  0
M  END
>  <HIPPO Pose ID>  (414) 
137330

>  <fragmenstein_outcome>  (414) 
acceptable

>  <energy_score>  (414) 
-71.816129

>  <distance_score>  (414) 
0.929841

>  <fragmenstein_mode>  (414) 
expansion

>  <HIPPO Compound ID>  (414) 
29732

>  <name>  (414) 
FVRIBDJZGWKKLO-UHFFFAOYSA-N

>  <ref_pdb>  (414) 
3vws-a

>  <ref_mols>  (414) 
z0386a,3vws-a

>  <csv_name>  (414) 
RdRp_knitwork_green_site_rna_tunnel_pure_split4000_batch006.csv

>  <fragmenstein_runtime>  (414) 
45.922971

>  <tags>  (414) 
['Fragmenstein placed']

>  <original ID>  (414) 
FVRIBDJZGWKKLO-UHFFFAOYSA-N

>  <fragmenstein_error>  (414) 
None

>  <original SMILES>  (414) 
CN(C)c1ncccc1CCNS(=O)(=O)c1ccc2occc2c1

>  <inchikey>  (414) 
FVRIBDJZGWKKLO-UHFFFAOYSA-N

>  <SLURM_JOB_NAME>  (414) 
BulkDock.place:Flavi_NS5_RdRp:RdRp_knitwork_green_site_rna_tunnel_pure_split4000_batch006

>  <scratch_subdir>  (414) 
/opt/xchem-fragalysis-2/maxwin/BulkDock/SCRATCH/217077/C29732-P218

>  <alias>  (414) 
None

>  <SLURM_JOB_ID>  (414) 
217077

>  <exports>  (414) 
['/opt/xchem-fragalysis-2/maxwin/BulkDock/OUTPUTS/RdRp_knitwork_green_site_rna_tunnel_pure_split4000_batch006_217077.sdf']

$$$$
137360
     RDKit          3D

 22 23  0  0  0  0  0  0  0  0999 V2000
  -29.9393  -32.1703  -16.9887 C   0  0  0  0  0  0  0  0  0  0  0  0
  -28.8209  -31.1364  -16.9145 C   0  0  0  0  0  0  0  0  0  0  0  0
  -29.1829  -30.0219  -15.9410 C   0  0  0  0  0  0  0  0  0  0  0  0
  -28.5071  -30.6214  -18.2933 C   0  0  0  0  0  0  0  0  0  0  0  0
  -29.4949  -30.0989  -19.1233 C   0  0  0  0  0  0  0  0  0  0  0  0
  -29.2886  -29.6776  -20.3878 N   0  0  0  0  0  0  0  0  0  0  0  0
  -28.0460  -29.8533  -20.8801 C   0  0  0  0  0  0  0  0  0  0  0  0
  -27.0113  -30.4314  -20.1608 C   0  0  0  0  0  0  0  0  0  0  0  0
  -25.8327  -30.8193  -20.7693 N   0  0  0  0  0  0  0  0  0  0  0  0
  -25.4078  -30.7666  -22.2590 C   0  0  0  0  0  0  0  0  0  0  0  0
  -25.9445  -30.3282  -23.1617 O   0  0  0  0  0  0  0  0  0  0  0  0
  -24.0946  -31.5708  -22.1735 N   0  0  0  0  0  0  0  0  0  0  0  0
  -23.2463  -32.0642  -23.2050 C   0  0  0  0  0  0  0  0  0  0  0  0
  -21.7790  -32.1475  -22.7819 C   0  0  2  0  0  0  0  0  0  0  0  0
  -20.9941  -32.3487  -23.9736 O   0  0  0  0  0  0  0  0  0  0  0  0
  -21.4864  -33.3111  -21.8387 C   0  0  0  0  0  0  0  0  0  0  0  0
  -21.8404  -33.1516  -20.4421 N   0  0  0  0  0  0  0  0  0  0  0  0
  -20.9897  -33.3173  -19.3799 C   0  0  0  0  0  0  0  0  0  0  0  0
  -21.7758  -33.3448  -18.2532 C   0  0  0  0  0  0  0  0  0  0  0  0
  -23.0864  -33.1719  -18.7307 C   0  0  0  0  0  0  0  0  0  0  0  0
  -23.1361  -33.0413  -20.0595 N   0  0  0  0  0  0  0  0  0  0  0  0
  -27.2273  -30.7632  -18.8302 C   0  0  0  0  0  0  0  0  0  0  0  0
  1  2  1  0
  2  3  1  0
  2  4  1  0
  4  5  2  0
  5  6  1  0
  6  7  2  0
  7  8  1  0
  8  9  1  0
  9 10  1  0
 10 11  2  0
 10 12  1  0
 12 13  1  0
 13 14  1  0
 14 15  1  6
 14 16  1  0
 16 17  1  0
 17 18  1  0
 18 19  2  0
 19 20  1  0
 20 21  2  0
  8 22  2  0
 22  4  1  0
 21 17  1  0
M  END
>  <HIPPO Pose ID>  (415) 
137360

>  <fragmenstein_outcome>  (415) 
acceptable

>  <energy_score>  (415) 
-33.29414

>  <distance_score>  (415) 
0.888053

>  <fragmenstein_mode>  (415) 
expansion

>  <HIPPO Compound ID>  (415) 
31219

>  <name>  (415) 
BTXBTDDMISPNLF-AWEZNQCLSA-N

>  <ref_pdb>  (415) 
z0653a

>  <ref_mols>  (415) 
z0211a,z0653a

>  <csv_name>  (415) 
RdRp_knitwork_green_site_rna_tunnel_pure_split4000_batch013.csv

>  <fragmenstein_runtime>  (415) 
7.918435

>  <tags>  (415) 
['Fragmenstein placed']

>  <original ID>  (415) 
BTXBTDDMISPNLF-AWEZNQCLSA-N

>  <fragmenstein_error>  (415) 
None

>  <original SMILES>  (415) 
CC(C)c1cncc(NC(=O)NC[C@H](O)Cn2cccn2)c1

>  <inchikey>  (415) 
BTXBTDDMISPNLF-AWEZNQCLSA-N

>  <SLURM_JOB_NAME>  (415) 
BulkDock.place:Flavi_NS5_RdRp:RdRp_knitwork_green_site_rna_tunnel_pure_split4000_batch013

>  <scratch_subdir>  (415) 
/opt/xchem-fragalysis-2/maxwin/BulkDock/SCRATCH/217084/C31219-P153

>  <alias>  (415) 
None

>  <SLURM_JOB_ID>  (415) 
217084

>  <exports>  (415) 
['/opt/xchem-fragalysis-2/maxwin/BulkDock/OUTPUTS/RdRp_knitwork_green_site_rna_tunnel_pure_split4000_batch013_217084.sdf']

$$$$
137378
     RDKit          3D

 19 21  0  0  0  0  0  0  0  0999 V2000
  -27.1819  -35.1400  -17.5988 O   0  0  0  0  0  0  0  0  0  0  0  0
  -25.9151  -34.6156  -18.0664 S   0  0  0  0  0  0  0  0  0  0  0  0
  -25.1134  -35.3673  -19.0071 O   0  0  0  0  0  0  0  0  0  0  0  0
  -25.0279  -34.3268  -16.6822 N   0  0  0  0  0  0  0  0  0  0  0  0
  -23.6540  -33.9696  -16.5883 C   0  0  0  0  0  0  0  0  0  0  0  0
  -22.7414  -34.0363  -17.6330 C   0  0  0  0  0  0  0  0  0  0  0  0
  -21.4249  -33.6762  -17.3812 C   0  0  0  0  0  0  0  0  0  0  0  0
  -20.9775  -33.2270  -16.1875 N   0  0  0  0  0  0  0  0  0  0  0  0
  -21.8729  -33.2055  -15.1820 C   0  0  0  0  0  0  0  0  0  0  0  0
  -23.2012  -33.5673  -15.3306 C   0  0  0  0  0  0  0  0  0  0  0  0
  -26.2646  -33.0212  -18.7688 C   0  0  0  0  0  0  0  0  0  0  0  0
  -25.6704  -32.6655  -19.9858 C   0  0  0  0  0  0  0  0  0  0  0  0
  -26.0104  -31.4645  -20.6127 C   0  0  0  0  0  0  0  0  0  0  0  0
  -26.9289  -30.6488  -19.9645 C   0  0  0  0  0  0  0  0  0  0  0  0
  -27.3490  -29.4395  -20.4186 O   0  0  0  0  0  0  0  0  0  0  0  0
  -28.2920  -29.0056  -19.5471 C   0  0  0  0  0  0  0  0  0  0  0  0
  -28.4789  -29.9161  -18.5305 C   0  0  0  0  0  0  0  0  0  0  0  0
  -27.5706  -30.9818  -18.7781 C   0  0  0  0  0  0  0  0  0  0  0  0
  -27.2437  -32.2058  -18.1609 C   0  0  0  0  0  0  0  0  0  0  0  0
  1  2  2  0
  2  3  2  0
  2  4  1  0
  4  5  1  0
  5  6  2  0
  6  7  1  0
  7  8  2  0
  8  9  1  0
  9 10  2  0
  2 11  1  0
 11 12  2  0
 12 13  1  0
 13 14  2  0
 14 15  1  0
 15 16  1  0
 16 17  2  0
 17 18  1  0
 18 19  2  0
 10  5  1  0
 19 11  1  0
 18 14  1  0
M  END
>  <HIPPO Pose ID>  (416) 
137378

>  <fragmenstein_outcome>  (416) 
acceptable

>  <energy_score>  (416) 
-37.644026

>  <distance_score>  (416) 
0.881951

>  <fragmenstein_mode>  (416) 
expansion

>  <HIPPO Compound ID>  (416) 
29918

>  <name>  (416) 
SYHGKHCRCYWMET-UHFFFAOYSA-N

>  <ref_pdb>  (416) 
z0386a

>  <ref_mols>  (416) 
z0386a,3vws-a

>  <csv_name>  (416) 
RdRp_knitwork_green_site_rna_tunnel_pure_split4000_batch006.csv

>  <fragmenstein_runtime>  (416) 
28.658949

>  <tags>  (416) 
['Fragmenstein placed']

>  <original ID>  (416) 
SYHGKHCRCYWMET-UHFFFAOYSA-N

>  <fragmenstein_error>  (416) 
None

>  <original SMILES>  (416) 
O=S(=O)(Nc1ccncc1)c1ccc2occc2c1

>  <inchikey>  (416) 
SYHGKHCRCYWMET-UHFFFAOYSA-N

>  <SLURM_JOB_NAME>  (416) 
BulkDock.place:Flavi_NS5_RdRp:RdRp_knitwork_green_site_rna_tunnel_pure_split4000_batch006

>  <scratch_subdir>  (416) 
/opt/xchem-fragalysis-2/maxwin/BulkDock/SCRATCH/217077/C29918-P121

>  <alias>  (416) 
None

>  <SLURM_JOB_ID>  (416) 
217077

>  <exports>  (416) 
['/opt/xchem-fragalysis-2/maxwin/BulkDock/OUTPUTS/RdRp_knitwork_green_site_rna_tunnel_pure_split4000_batch006_217077.sdf']

$$$$
137414
     RDKit          3D

 23 24  0  0  0  0  0  0  0  0999 V2000
  -28.8383  -29.3483  -15.6919 C   0  0  0  0  0  0  0  0  0  0  0  0
  -28.1689  -30.7043  -15.7201 C   0  0  0  0  0  0  0  0  0  0  0  0
  -28.6524  -31.5780  -16.8708 C   0  0  0  0  0  0  0  0  0  0  0  0
  -28.4365  -30.9840  -18.1837 N   0  0  0  0  0  0  0  0  0  0  0  0
  -27.2027  -31.1141  -18.8065 C   0  0  0  0  0  0  0  0  0  0  0  0
  -27.0134  -30.7151  -20.0744 C   0  0  0  0  0  0  0  0  0  0  0  0
  -25.8846  -31.0541  -20.7550 N   0  0  0  0  0  0  0  0  0  0  0  0
  -25.5290  -30.8921  -22.2665 C   0  0  0  0  0  0  0  0  0  0  0  0
  -26.1082  -30.3868  -23.1099 O   0  0  0  0  0  0  0  0  0  0  0  0
  -24.1548  -31.6007  -22.2824 N   0  0  0  0  0  0  0  0  0  0  0  0
  -23.2746  -31.9007  -23.3779 C   0  0  0  0  0  0  0  0  0  0  0  0
  -22.1039  -32.8107  -22.9856 C   0  0  1  0  0  0  0  0  0  0  0  0
  -21.2092  -32.9570  -24.1037 O   0  0  0  0  0  0  0  0  0  0  0  0
  -21.3493  -32.2876  -21.7510 C   0  0  0  0  0  0  0  0  0  0  0  0
  -21.7720  -32.9468  -20.5183 N   0  0  0  0  0  0  0  0  0  0  0  0
  -20.9508  -33.4573  -19.5499 C   0  0  0  0  0  0  0  0  0  0  0  0
  -21.7741  -34.0205  -18.6039 C   0  0  0  0  0  0  0  0  0  0  0  0
  -23.0774  -33.8078  -19.0892 C   0  0  0  0  0  0  0  0  0  0  0  0
  -23.0885  -33.1515  -20.2504 N   0  0  0  0  0  0  0  0  0  0  0  0
  -28.0766  -30.0168  -20.7515 C   0  0  0  0  0  0  0  0  0  0  0  0
  -29.2881  -29.9081  -20.1969 C   0  0  0  0  0  0  0  0  0  0  0  0
  -29.5409  -30.4447  -18.8404 C   0  0  0  0  0  0  0  0  0  0  0  0
  -30.6703  -30.3924  -18.3662 O   0  0  0  0  0  0  0  0  0  0  0  0
  1  2  1  0
  2  3  1  0
  3  4  1  0
  4  5  1  0
  5  6  2  0
  6  7  1  0
  7  8  1  0
  8  9  2  0
  8 10  1  0
 10 11  1  0
 11 12  1  0
 12 13  1  6
 12 14  1  0
 14 15  1  0
 15 16  1  0
 16 17  2  0
 17 18  1  0
 18 19  2  0
  6 20  1  0
 20 21  2  0
 21 22  1  0
 22 23  2  0
 22  4  1  0
 19 15  1  0
M  END
>  <HIPPO Pose ID>  (417) 
137414

>  <fragmenstein_outcome>  (417) 
acceptable

>  <energy_score>  (417) 
-21.569125

>  <distance_score>  (417) 
0.919294

>  <fragmenstein_mode>  (417) 
expansion

>  <HIPPO Compound ID>  (417) 
31494

>  <name>  (417) 
UPMZXWHYJWNSNW-CYBMUJFWSA-N

>  <ref_pdb>  (417) 
z0653a

>  <ref_mols>  (417) 
z0211a,z0653a

>  <csv_name>  (417) 
RdRp_knitwork_green_site_rna_tunnel_pure_split4000_batch013.csv

>  <fragmenstein_runtime>  (417) 
4.799342

>  <tags>  (417) 
['Fragmenstein placed']

>  <original ID>  (417) 
UPMZXWHYJWNSNW-CYBMUJFWSA-N

>  <fragmenstein_error>  (417) 
None

>  <original SMILES>  (417) 
CCCn1cc(NC(=O)NC[C@@H](O)Cn2cccn2)ccc1=O

>  <inchikey>  (417) 
UPMZXWHYJWNSNW-CYBMUJFWSA-N

>  <SLURM_JOB_NAME>  (417) 
BulkDock.place:Flavi_NS5_RdRp:RdRp_knitwork_green_site_rna_tunnel_pure_split4000_batch013

>  <scratch_subdir>  (417) 
/opt/xchem-fragalysis-2/maxwin/BulkDock/SCRATCH/217084/C31494-P153

>  <alias>  (417) 
None

>  <SLURM_JOB_ID>  (417) 
217084

>  <exports>  (417) 
['/opt/xchem-fragalysis-2/maxwin/BulkDock/OUTPUTS/RdRp_knitwork_green_site_rna_tunnel_pure_split4000_batch013_217084.sdf']

$$$$
137433
     RDKit          3D

 19 21  0  0  0  0  0  0  0  0999 V2000
  -26.8921  -34.8273  -17.7751 O   0  0  0  0  0  0  0  0  0  0  0  0
  -25.5897  -34.2710  -18.0816 S   0  0  0  0  0  0  0  0  0  0  0  0
  -24.7091  -34.9685  -18.9907 O   0  0  0  0  0  0  0  0  0  0  0  0
  -24.8183  -33.9344  -16.6387 N   0  0  0  0  0  0  0  0  0  0  0  0
  -23.5227  -33.3491  -16.5484 C   0  0  0  0  0  0  0  0  0  0  0  0
  -22.4717  -33.6834  -17.3948 C   0  0  0  0  0  0  0  0  0  0  0  0
  -21.2474  -33.0676  -17.1964 C   0  0  0  0  0  0  0  0  0  0  0  0
  -21.0068  -32.1746  -16.2147 N   0  0  0  0  0  0  0  0  0  0  0  0
  -22.0291  -31.9062  -15.3778 C   0  0  0  0  0  0  0  0  0  0  0  0
  -23.2872  -32.4701  -15.4973 C   0  0  0  0  0  0  0  0  0  0  0  0
  -25.8725  -32.6543  -18.7620 C   0  0  0  0  0  0  0  0  0  0  0  0
  -24.8775  -32.0557  -19.5455 C   0  0  0  0  0  0  0  0  0  0  0  0
  -25.0968  -30.8166  -20.1491 C   0  0  0  0  0  0  0  0  0  0  0  0
  -26.3587  -30.2601  -19.9683 C   0  0  0  0  0  0  0  0  0  0  0  0
  -26.7836  -29.0947  -20.5200 O   0  0  0  0  0  0  0  0  0  0  0  0
  -28.0856  -28.9568  -20.1732 C   0  0  0  0  0  0  0  0  0  0  0  0
  -28.5025  -29.9866  -19.3648 C   0  0  0  0  0  0  0  0  0  0  0  0
  -27.3805  -30.8418  -19.2246 C   0  0  0  0  0  0  0  0  0  0  0  0
  -27.1338  -32.0630  -18.5834 C   0  0  0  0  0  0  0  0  0  0  0  0
  1  2  2  0
  2  3  2  0
  2  4  1  0
  4  5  1  0
  5  6  2  0
  6  7  1  0
  7  8  2  0
  8  9  1  0
  9 10  2  0
  2 11  1  0
 11 12  2  0
 12 13  1  0
 13 14  2  0
 14 15  1  0
 15 16  1  0
 16 17  2  0
 17 18  1  0
 18 19  2  0
 10  5  1  0
 19 11  1  0
 18 14  1  0
M  END
>  <HIPPO Pose ID>  (418) 
137433

>  <fragmenstein_outcome>  (418) 
acceptable

>  <energy_score>  (418) 
-39.243428

>  <distance_score>  (418) 
0.651884

>  <fragmenstein_mode>  (418) 
expansion

>  <HIPPO Compound ID>  (418) 
29918

>  <name>  (418) 
SYHGKHCRCYWMET-UHFFFAOYSA-N

>  <ref_pdb>  (418) 
3vws-a

>  <ref_mols>  (418) 
z0386a,3vws-a

>  <csv_name>  (418) 
RdRp_knitwork_green_site_rna_tunnel_pure_split4000_batch006.csv

>  <fragmenstein_runtime>  (418) 
33.879549

>  <tags>  (418) 
['Fragmenstein placed']

>  <original ID>  (418) 
SYHGKHCRCYWMET-UHFFFAOYSA-N

>  <fragmenstein_error>  (418) 
None

>  <original SMILES>  (418) 
O=S(=O)(Nc1ccncc1)c1ccc2occc2c1

>  <inchikey>  (418) 
SYHGKHCRCYWMET-UHFFFAOYSA-N

>  <SLURM_JOB_NAME>  (418) 
BulkDock.place:Flavi_NS5_RdRp:RdRp_knitwork_green_site_rna_tunnel_pure_split4000_batch006

>  <scratch_subdir>  (418) 
/opt/xchem-fragalysis-2/maxwin/BulkDock/SCRATCH/217077/C29918-P218

>  <alias>  (418) 
None

>  <SLURM_JOB_ID>  (418) 
217077

>  <exports>  (418) 
['/opt/xchem-fragalysis-2/maxwin/BulkDock/OUTPUTS/RdRp_knitwork_green_site_rna_tunnel_pure_split4000_batch006_217077.sdf']

$$$$
137481
     RDKit          3D

 20 22  0  0  0  0  0  0  0  0999 V2000
  -26.7649  -34.7611  -17.5830 O   0  0  0  0  0  0  0  0  0  0  0  0
  -25.4938  -34.2429  -18.0454 S   0  0  0  0  0  0  0  0  0  0  0  0
  -24.7599  -34.9822  -19.0476 O   0  0  0  0  0  0  0  0  0  0  0  0
  -24.5275  -33.9227  -16.7111 N   0  0  0  0  0  0  0  0  0  0  0  0
  -23.1728  -33.4348  -16.7806 C   0  0  0  0  0  0  0  0  0  0  0  0
  -22.3199  -33.7474  -17.8400 C   0  0  0  0  0  0  0  0  0  0  0  0
  -21.0273  -33.2410  -17.8491 C   0  0  0  0  0  0  0  0  0  0  0  0
  -20.5143  -32.4760  -16.8688 N   0  0  0  0  0  0  0  0  0  0  0  0
  -21.3189  -32.2478  -15.8116 C   0  0  0  0  0  0  0  0  0  0  0  0
  -22.6228  -32.7140  -15.7139 C   0  0  0  0  0  0  0  0  0  0  0  0
  -23.4573  -32.3967  -14.2580 Cl  0  0  0  0  0  0  0  0  0  0  0  0
  -25.8135  -32.6316  -18.7288 C   0  0  0  0  0  0  0  0  0  0  0  0
  -24.8636  -32.0410  -19.5727 C   0  0  0  0  0  0  0  0  0  0  0  0
  -25.1204  -30.8178  -20.1946 C   0  0  0  0  0  0  0  0  0  0  0  0
  -26.3825  -30.2746  -19.9821 C   0  0  0  0  0  0  0  0  0  0  0  0
  -26.8460  -29.1338  -20.5536 O   0  0  0  0  0  0  0  0  0  0  0  0
  -28.1410  -29.0123  -20.1749 C   0  0  0  0  0  0  0  0  0  0  0  0
  -28.5117  -30.0253  -19.3233 C   0  0  0  0  0  0  0  0  0  0  0  0
  -27.3672  -30.8522  -19.1877 C   0  0  0  0  0  0  0  0  0  0  0  0
  -27.0744  -32.0492  -18.5181 C   0  0  0  0  0  0  0  0  0  0  0  0
  1  2  2  0
  2  3  2  0
  2  4  1  0
  4  5  1  0
  5  6  2  0
  6  7  1  0
  7  8  2  0
  8  9  1  0
  9 10  2  0
 10 11  1  0
  2 12  1  0
 12 13  2  0
 13 14  1  0
 14 15  2  0
 15 16  1  0
 16 17  1  0
 17 18  2  0
 18 19  1  0
 19 20  2  0
 10  5  1  0
 20 12  1  0
 19 15  1  0
M  END
>  <HIPPO Pose ID>  (419) 
137481

>  <fragmenstein_outcome>  (419) 
acceptable

>  <energy_score>  (419) 
-37.985389

>  <distance_score>  (419) 
0.739368

>  <fragmenstein_mode>  (419) 
expansion

>  <HIPPO Compound ID>  (419) 
29919

>  <name>  (419) 
TXGJWGNQEHSWQT-UHFFFAOYSA-N

>  <ref_pdb>  (419) 
3vws-a

>  <ref_mols>  (419) 
z0386a,3vws-a

>  <csv_name>  (419) 
RdRp_knitwork_green_site_rna_tunnel_pure_split4000_batch006.csv

>  <fragmenstein_runtime>  (419) 
35.978384

>  <tags>  (419) 
['Fragmenstein placed']

>  <original ID>  (419) 
TXGJWGNQEHSWQT-UHFFFAOYSA-N

>  <fragmenstein_error>  (419) 
None

>  <original SMILES>  (419) 
O=S(=O)(Nc1ccncc1Cl)c1ccc2occc2c1

>  <inchikey>  (419) 
TXGJWGNQEHSWQT-UHFFFAOYSA-N

>  <SLURM_JOB_NAME>  (419) 
BulkDock.place:Flavi_NS5_RdRp:RdRp_knitwork_green_site_rna_tunnel_pure_split4000_batch006

>  <scratch_subdir>  (419) 
/opt/xchem-fragalysis-2/maxwin/BulkDock/SCRATCH/217077/C29919-P218

>  <alias>  (419) 
None

>  <SLURM_JOB_ID>  (419) 
217077

>  <exports>  (419) 
['/opt/xchem-fragalysis-2/maxwin/BulkDock/OUTPUTS/RdRp_knitwork_green_site_rna_tunnel_pure_split4000_batch006_217077.sdf']

$$$$
137501
     RDKit          3D

 23 25  0  0  0  0  0  0  0  0999 V2000
  -26.1007  -30.5084  -23.3102 O   0  0  0  0  0  0  0  0  0  0  0  0
  -25.5395  -30.8251  -22.3712 C   0  0  0  0  0  0  0  0  0  0  0  0
  -24.1418  -31.4598  -22.2112 N   0  0  0  0  0  0  0  0  0  0  0  0
  -23.2083  -31.9105  -23.2003 C   0  0  0  0  0  0  0  0  0  0  0  0
  -22.0267  -32.7197  -22.6599 C   0  0  1  0  0  0  0  0  0  0  0  0
  -21.0430  -32.8784  -23.6981 O   0  0  0  0  0  0  0  0  0  0  0  0
  -21.3650  -32.0842  -21.4303 C   0  0  0  0  0  0  0  0  0  0  0  0
  -21.8836  -32.6331  -20.1837 N   0  0  0  0  0  0  0  0  0  0  0  0
  -21.1622  -33.2894  -19.2282 C   0  0  0  0  0  0  0  0  0  0  0  0
  -22.0665  -33.7020  -18.2809 C   0  0  0  0  0  0  0  0  0  0  0  0
  -23.3090  -33.2419  -18.7484 C   0  0  0  0  0  0  0  0  0  0  0  0
  -23.2130  -32.5777  -19.9053 N   0  0  0  0  0  0  0  0  0  0  0  0
  -25.9548  -30.7314  -20.8683 N   0  0  0  0  0  0  0  0  0  0  0  0
  -27.1510  -30.3234  -20.2899 C   0  0  0  0  0  0  0  0  0  0  0  0
  -28.2642  -30.1042  -21.1147 C   0  0  0  0  0  0  0  0  0  0  0  0
  -29.5476  -29.9167  -20.5855 C   0  0  0  0  0  0  0  0  0  0  0  0
  -29.7320  -29.9330  -19.2174 C   0  0  0  0  0  0  0  0  0  0  0  0
  -28.6003  -30.0130  -18.4335 C   0  0  0  0  0  0  0  0  0  0  0  0
  -27.3121  -30.1928  -18.9245 C   0  0  0  0  0  0  0  0  0  0  0  0
  -26.2981  -30.2063  -17.8228 C   0  0  0  0  0  0  0  0  0  0  0  0
  -27.1299  -30.0107  -16.5291 C   0  0  0  0  0  0  0  0  0  0  0  0
  -28.5615  -29.9876  -16.9903 C   0  0  0  0  0  0  0  0  0  0  0  0
  -29.5708  -29.9822  -16.3108 O   0  0  0  0  0  0  0  0  0  0  0  0
  1  2  2  0
  2  3  1  0
  3  4  1  0
  4  5  1  0
  5  6  1  6
  5  7  1  0
  7  8  1  0
  8  9  1  0
  9 10  2  0
 10 11  1  0
 11 12  2  0
  2 13  1  0
 13 14  1  0
 14 15  2  0
 15 16  1  0
 16 17  2  0
 17 18  1  0
 18 19  2  0
 19 20  1  0
 20 21  1  0
 21 22  1  0
 22 23  2  0
 12  8  1  0
 19 14  1  0
 22 18  1  0
M  END
>  <HIPPO Pose ID>  (420) 
137501

>  <fragmenstein_outcome>  (420) 
acceptable

>  <energy_score>  (420) 
-33.777412

>  <distance_score>  (420) 
0.998854

>  <fragmenstein_mode>  (420) 
expansion

>  <HIPPO Compound ID>  (420) 
31941

>  <name>  (420) 
JJMHMHGSDIXJLF-LLVKDONJSA-N

>  <ref_pdb>  (420) 
z0211a

>  <ref_mols>  (420) 
z0211a,z0653a

>  <csv_name>  (420) 
RdRp_knitwork_green_site_rna_tunnel_pure_split4000_batch013.csv

>  <fragmenstein_runtime>  (420) 
9.650396

>  <tags>  (420) 
['Fragmenstein placed']

>  <original ID>  (420) 
JJMHMHGSDIXJLF-LLVKDONJSA-N

>  <fragmenstein_error>  (420) 
None

>  <original SMILES>  (420) 
O=C(NC[C@@H](O)Cn1cccn1)Nc1cccc2c1CCC2=O

>  <inchikey>  (420) 
JJMHMHGSDIXJLF-LLVKDONJSA-N

>  <SLURM_JOB_NAME>  (420) 
BulkDock.place:Flavi_NS5_RdRp:RdRp_knitwork_green_site_rna_tunnel_pure_split4000_batch013

>  <scratch_subdir>  (420) 
/opt/xchem-fragalysis-2/maxwin/BulkDock/SCRATCH/217084/C31941-P102

>  <alias>  (420) 
None

>  <SLURM_JOB_ID>  (420) 
217084

>  <exports>  (420) 
['/opt/xchem-fragalysis-2/maxwin/BulkDock/OUTPUTS/RdRp_knitwork_green_site_rna_tunnel_pure_split4000_batch013_217084.sdf']

$$$$
137619
     RDKit          3D

 21 22  0  0  0  0  0  0  0  0999 V2000
  -29.6508  -31.1674  -15.7520 C   0  0  0  0  0  0  0  0  0  0  0  0
  -28.1777  -30.1884  -16.1445 S   0  0  0  0  0  0  0  0  0  0  0  0
  -28.1830  -30.1955  -17.9247 C   0  0  0  0  0  0  0  0  0  0  0  0
  -29.3573  -30.1392  -18.6627 C   0  0  0  0  0  0  0  0  0  0  0  0
  -29.2570  -30.1116  -20.0358 C   0  0  0  0  0  0  0  0  0  0  0  0
  -28.0891  -30.1977  -20.6983 N   0  0  0  0  0  0  0  0  0  0  0  0
  -26.9604  -30.3046  -19.9801 C   0  0  0  0  0  0  0  0  0  0  0  0
  -25.7816  -30.5974  -20.6452 N   0  0  0  0  0  0  0  0  0  0  0  0
  -25.5289  -30.9500  -22.1426 C   0  0  0  0  0  0  0  0  0  0  0  0
  -26.2495  -30.9687  -23.0269 O   0  0  0  0  0  0  0  0  0  0  0  0
  -24.0318  -31.3673  -22.0568 N   0  0  0  0  0  0  0  0  0  0  0  0
  -23.1740  -31.9798  -23.0443 C   0  0  0  0  0  0  0  0  0  0  0  0
  -21.6901  -32.1348  -22.6863 C   0  0  2  0  0  0  0  0  0  0  0  0
  -21.0685  -32.8986  -23.7412 O   0  0  0  0  0  0  0  0  0  0  0  0
  -21.5192  -32.8728  -21.3576 C   0  0  0  0  0  0  0  0  0  0  0  0
  -20.1378  -33.0000  -20.9222 N   0  0  0  0  0  0  0  0  0  0  0  0
  -19.4826  -34.1649  -20.6361 C   0  0  0  0  0  0  0  0  0  0  0  0
  -18.2265  -33.8076  -20.2101 C   0  0  0  0  0  0  0  0  0  0  0  0
  -18.2200  -32.4041  -20.2705 C   0  0  0  0  0  0  0  0  0  0  0  0
  -19.3799  -31.9053  -20.7078 N   0  0  0  0  0  0  0  0  0  0  0  0
  -26.9569  -30.2523  -18.5956 C   0  0  0  0  0  0  0  0  0  0  0  0
  1  2  1  0
  2  3  1  0
  3  4  2  0
  4  5  1  0
  5  6  2  0
  6  7  1  0
  7  8  1  0
  8  9  1  0
  9 10  2  0
  9 11  1  0
 11 12  1  0
 12 13  1  0
 13 14  1  6
 13 15  1  0
 15 16  1  0
 16 17  1  0
 17 18  2  0
 18 19  1  0
 19 20  2  0
  7 21  2  0
 21  3  1  0
 20 16  1  0
M  END
>  <HIPPO Pose ID>  (421) 
137619

>  <fragmenstein_outcome>  (421) 
acceptable

>  <energy_score>  (421) 
-19.434483

>  <distance_score>  (421) 
0.779887

>  <fragmenstein_mode>  (421) 
expansion

>  <HIPPO Compound ID>  (421) 
33061

>  <name>  (421) 
PPPDIRLJACAGAM-JTQLQIEISA-N

>  <ref_pdb>  (421) 
z0653a

>  <ref_mols>  (421) 
z0211a,z0653a

>  <csv_name>  (421) 
RdRp_knitwork_green_site_rna_tunnel_pure_split4000_batch013.csv

>  <fragmenstein_runtime>  (421) 
7.263204

>  <tags>  (421) 
['Fragmenstein placed']

>  <original ID>  (421) 
PPPDIRLJACAGAM-JTQLQIEISA-N

>  <fragmenstein_error>  (421) 
None

>  <original SMILES>  (421) 
CSc1ccnc(NC(=O)NC[C@H](O)Cn2cccn2)c1

>  <inchikey>  (421) 
PPPDIRLJACAGAM-JTQLQIEISA-N

>  <SLURM_JOB_NAME>  (421) 
BulkDock.place:Flavi_NS5_RdRp:RdRp_knitwork_green_site_rna_tunnel_pure_split4000_batch013

>  <scratch_subdir>  (421) 
/opt/xchem-fragalysis-2/maxwin/BulkDock/SCRATCH/217084/C33061-P153

>  <alias>  (421) 
None

>  <SLURM_JOB_ID>  (421) 
217084

>  <exports>  (421) 
['/opt/xchem-fragalysis-2/maxwin/BulkDock/OUTPUTS/RdRp_knitwork_green_site_rna_tunnel_pure_split4000_batch013_217084.sdf']

$$$$
137673
     RDKit          3D

 24 26  0  0  0  0  0  0  0  0999 V2000
  -26.0771  -30.8011  -23.0811 O   0  0  0  0  0  0  0  0  0  0  0  0
  -25.3639  -30.8285  -22.1921 C   0  0  0  0  0  0  0  0  0  0  0  0
  -23.8955  -31.3143  -22.1016 N   0  0  0  0  0  0  0  0  0  0  0  0
  -23.0653  -31.9476  -23.0836 C   0  0  0  0  0  0  0  0  0  0  0  0
  -21.5820  -32.1033  -22.7631 C   0  0  2  0  0  0  0  0  0  0  0  0
  -20.9831  -32.8103  -23.8672 O   0  0  0  0  0  0  0  0  0  0  0  0
  -21.3888  -32.9042  -21.4804 C   0  0  0  0  0  0  0  0  0  0  0  0
  -20.0062  -32.9880  -21.0458 N   0  0  0  0  0  0  0  0  0  0  0  0
  -19.3077  -34.1349  -20.7889 C   0  0  0  0  0  0  0  0  0  0  0  0
  -18.1045  -33.7423  -20.2567 C   0  0  0  0  0  0  0  0  0  0  0  0
  -18.1719  -32.3393  -20.2370 C   0  0  0  0  0  0  0  0  0  0  0  0
  -19.3222  -31.8696  -20.7271 N   0  0  0  0  0  0  0  0  0  0  0  0
  -25.6127  -30.4848  -20.6890 N   0  0  0  0  0  0  0  0  0  0  0  0
  -26.7855  -30.1458  -20.0272 C   0  0  0  0  0  0  0  0  0  0  0  0
  -27.9085  -29.8247  -20.7939 C   0  0  0  0  0  0  0  0  0  0  0  0
  -29.1776  -29.9094  -20.2448 C   0  0  0  0  0  0  0  0  0  0  0  0
  -29.3128  -30.3383  -18.9313 C   0  0  0  0  0  0  0  0  0  0  0  0
  -28.1848  -30.4763  -18.1143 C   0  0  0  0  0  0  0  0  0  0  0  0
  -26.9014  -30.3558  -18.6545 C   0  0  0  0  0  0  0  0  0  0  0  0
  -28.3841  -30.8612  -16.6954 C   0  0  0  0  0  0  0  0  0  0  0  0
  -27.5753  -30.5738  -15.8271 O   0  0  0  0  0  0  0  0  0  0  0  0
  -29.5203  -31.5469  -16.4157 O   0  0  0  0  0  0  0  0  0  0  0  0
  -30.3905  -31.9486  -17.4847 C   0  0  0  0  0  0  0  0  0  0  0  0
  -30.6410  -30.7604  -18.3969 C   0  0  0  0  0  0  0  0  0  0  0  0
  1  2  2  0
  2  3  1  0
  3  4  1  0
  4  5  1  0
  5  6  1  6
  5  7  1  0
  7  8  1  0
  8  9  1  0
  9 10  2  0
 10 11  1  0
 11 12  2  0
  2 13  1  0
 13 14  1  0
 14 15  2  0
 15 16  1  0
 16 17  2  0
 17 18  1  0
 18 19  2  0
 18 20  1  0
 20 21  2  0
 20 22  1  0
 22 23  1  0
 23 24  1  0
 12  8  1  0
 19 14  1  0
 24 17  1  0
M  END
>  <HIPPO Pose ID>  (422) 
137673

>  <fragmenstein_outcome>  (422) 
acceptable

>  <energy_score>  (422) 
-17.193721

>  <distance_score>  (422) 
0.88787

>  <fragmenstein_mode>  (422) 
expansion

>  <HIPPO Compound ID>  (422) 
33190

>  <name>  (422) 
AQCIRSWZBVXKMB-ZDUSSCGKSA-N

>  <ref_pdb>  (422) 
z0653a

>  <ref_mols>  (422) 
z0211a,z0653a

>  <csv_name>  (422) 
RdRp_knitwork_green_site_rna_tunnel_pure_split4000_batch013.csv

>  <fragmenstein_runtime>  (422) 
4.825744

>  <tags>  (422) 
['Fragmenstein placed']

>  <original ID>  (422) 
AQCIRSWZBVXKMB-ZDUSSCGKSA-N

>  <fragmenstein_error>  (422) 
None

>  <original SMILES>  (422) 
O=C(NC[C@H](O)Cn1cccn1)Nc1ccc2c(c1)C(=O)OCC2

>  <inchikey>  (422) 
AQCIRSWZBVXKMB-ZDUSSCGKSA-N

>  <SLURM_JOB_NAME>  (422) 
BulkDock.place:Flavi_NS5_RdRp:RdRp_knitwork_green_site_rna_tunnel_pure_split4000_batch013

>  <scratch_subdir>  (422) 
/opt/xchem-fragalysis-2/maxwin/BulkDock/SCRATCH/217084/C33190-P153

>  <alias>  (422) 
None

>  <SLURM_JOB_ID>  (422) 
217084

>  <exports>  (422) 
['/opt/xchem-fragalysis-2/maxwin/BulkDock/OUTPUTS/RdRp_knitwork_green_site_rna_tunnel_pure_split4000_batch013_217084.sdf']

$$$$
138043
     RDKit          3D

 23 25  0  0  0  0  0  0  0  0999 V2000
  -25.4134  -30.8297  -22.7038 O   0  0  0  0  0  0  0  0  0  0  0  0
  -25.2775  -31.3640  -21.7112 C   0  0  0  0  0  0  0  0  0  0  0  0
  -24.3836  -32.5718  -21.3408 N   0  0  0  0  0  0  0  0  0  0  0  0
  -23.4068  -33.2906  -22.1293 C   0  0  0  0  0  0  0  0  0  0  0  0
  -22.3311  -32.3787  -22.7554 C   0  0  2  0  0  0  0  0  0  0  0  0
  -21.5028  -33.1472  -23.6489 O   0  0  0  0  0  0  0  0  0  0  0  0
  -21.4867  -31.6593  -21.6982 C   0  0  0  0  0  0  0  0  0  0  0  0
  -20.8017  -32.5901  -20.8187 N   0  0  0  0  0  0  0  0  0  0  0  0
  -21.1004  -32.8765  -19.5209 C   0  0  0  0  0  0  0  0  0  0  0  0
  -20.2422  -33.8824  -19.1465 C   0  0  0  0  0  0  0  0  0  0  0  0
  -19.4619  -34.1301  -20.2887 C   0  0  0  0  0  0  0  0  0  0  0  0
  -19.8150  -33.3625  -21.3244 N   0  0  0  0  0  0  0  0  0  0  0  0
  -25.9518  -31.1111  -20.3377 N   0  0  0  0  0  0  0  0  0  0  0  0
  -27.0033  -30.1931  -19.9678 C   0  0  1  0  0  0  0  0  0  0  0  0
  -28.1829  -30.4029  -20.9272 C   0  0  0  0  0  0  0  0  0  0  0  0
  -29.4272  -29.6709  -20.4696 C   0  0  0  0  0  0  0  0  0  0  0  0
  -29.8318  -30.1784  -19.0974 C   0  0  0  0  0  0  0  0  0  0  0  0
  -28.7122  -30.0393  -18.1005 C   0  0  0  0  0  0  0  0  0  0  0  0
  -29.0354  -29.9284  -16.7417 C   0  0  0  0  0  0  0  0  0  0  0  0
  -28.0303  -29.9069  -15.7824 C   0  0  0  0  0  0  0  0  0  0  0  0
  -26.6920  -29.9520  -16.1733 C   0  0  0  0  0  0  0  0  0  0  0  0
  -26.3561  -30.0422  -17.5258 C   0  0  0  0  0  0  0  0  0  0  0  0
  -27.3612  -30.1287  -18.5035 C   0  0  0  0  0  0  0  0  0  0  0  0
  1  2  2  0
  2  3  1  0
  3  4  1  0
  4  5  1  0
  5  6  1  1
  5  7  1  0
  7  8  1  0
  8  9  1  0
  9 10  2  0
 10 11  1  0
 11 12  2  0
  2 13  1  0
 14 13  1  1
 14 15  1  0
 15 16  1  0
 16 17  1  0
 17 18  1  0
 18 19  2  0
 19 20  1  0
 20 21  2  0
 21 22  1  0
 22 23  2  0
 12  8  1  0
 23 14  1  0
 23 18  1  0
M  END
>  <HIPPO Pose ID>  (423) 
138043

>  <fragmenstein_outcome>  (423) 
acceptable

>  <energy_score>  (423) 
-12.74911

>  <distance_score>  (423) 
0.899793

>  <fragmenstein_mode>  (423) 
expansion

>  <HIPPO Compound ID>  (423) 
34586

>  <name>  (423) 
IMQHTMPQTVLZSJ-HOCLYGCPSA-N

>  <ref_pdb>  (423) 
z0211a

>  <ref_mols>  (423) 
z0211a,z0653a

>  <csv_name>  (423) 
RdRp_knitwork_green_site_rna_tunnel_pure_split4000_batch013.csv

>  <fragmenstein_runtime>  (423) 
11.519928

>  <tags>  (423) 
['Fragmenstein placed']

>  <original ID>  (423) 
IMQHTMPQTVLZSJ-HOCLYGCPSA-N

>  <fragmenstein_error>  (423) 
None

>  <original SMILES>  (423) 
O=C(NC[C@H](O)Cn1cccn1)N[C@H]1CCCc2ccccc21

>  <inchikey>  (423) 
IMQHTMPQTVLZSJ-HOCLYGCPSA-N

>  <SLURM_JOB_NAME>  (423) 
BulkDock.place:Flavi_NS5_RdRp:RdRp_knitwork_green_site_rna_tunnel_pure_split4000_batch013

>  <scratch_subdir>  (423) 
/opt/xchem-fragalysis-2/maxwin/BulkDock/SCRATCH/217084/C34586-P102

>  <alias>  (423) 
None

>  <SLURM_JOB_ID>  (423) 
217084

>  <exports>  (423) 
['/opt/xchem-fragalysis-2/maxwin/BulkDock/OUTPUTS/RdRp_knitwork_green_site_rna_tunnel_pure_split4000_batch013_217084.sdf']

$$$$
138372
     RDKit          3D

 20 22  0  0  0  0  0  0  0  0999 V2000
  -27.6839  -33.8283  -14.9101 O   0  0  0  0  0  0  0  0  0  0  0  0
  -28.7586  -33.2882  -14.6639 C   0  0  0  0  0  0  0  0  0  0  0  0
  -29.6001  -32.9220  -15.6763 O   0  0  0  0  0  0  0  0  0  0  0  0
  -30.4136  -31.7343  -15.5724 C   0  0  0  0  0  0  0  0  0  0  0  0
  -30.4147  -31.0224  -16.9327 C   0  0  0  0  0  0  0  0  0  0  0  0
  -29.1024  -30.4410  -17.4200 C   0  0  0  0  0  0  0  0  0  0  0  0
  -28.0459  -30.2047  -16.5362 C   0  0  0  0  0  0  0  0  0  0  0  0
  -26.8558  -29.7173  -17.0319 C   0  0  0  0  0  0  0  0  0  0  0  0
  -26.6477  -29.4314  -18.3279 N   0  0  0  0  0  0  0  0  0  0  0  0
  -27.6615  -29.6198  -19.1889 C   0  0  0  0  0  0  0  0  0  0  0  0
  -27.4552  -29.3319  -20.5298 C   0  0  0  0  0  0  0  0  0  0  0  0
  -28.4612  -29.5052  -21.4796 C   0  0  0  0  0  0  0  0  0  0  0  0
  -29.7170  -29.9348  -21.0875 C   0  0  0  0  0  0  0  0  0  0  0  0
  -29.9468  -30.2417  -19.7545 C   0  0  0  0  0  0  0  0  0  0  0  0
  -28.9248  -30.1103  -18.7869 C   0  0  0  0  0  0  0  0  0  0  0  0
  -29.1985  -33.0602  -13.2794 C   0  0  0  0  0  0  0  0  0  0  0  0
  -28.3501  -33.2135  -12.1927 C   0  0  0  0  0  0  0  0  0  0  0  0
  -29.1790  -32.8999  -10.7275 S   0  0  0  0  0  0  0  0  0  0  0  0
  -30.6053  -32.6070  -11.6258 C   0  0  0  0  0  0  0  0  0  0  0  0
  -30.5039  -32.7102  -12.9314 N   0  0  0  0  0  0  0  0  0  0  0  0
  1  2  2  0
  2  3  1  0
  3  4  1  0
  4  5  1  0
  5  6  1  0
  6  7  2  0
  7  8  1  0
  8  9  2  0
  9 10  1  0
 10 11  2  0
 11 12  1  0
 12 13  2  0
 13 14  1  0
 14 15  2  0
  2 16  1  0
 16 17  2  0
 17 18  1  0
 18 19  1  0
 19 20  2  0
 15  6  1  0
 20 16  1  0
 15 10  1  0
M  END
>  <HIPPO Pose ID>  (424) 
138372

>  <fragmenstein_outcome>  (424) 
acceptable

>  <energy_score>  (424) 
-92.03971

>  <distance_score>  (424) 
0.946735

>  <fragmenstein_mode>  (424) 
expansion

>  <HIPPO Compound ID>  (424) 
36729

>  <name>  (424) 
WKPUEUDAXGSKRZ-UHFFFAOYSA-N

>  <ref_pdb>  (424) 
z0496a

>  <ref_mols>  (424) 
z0496a,z1040a

>  <csv_name>  (424) 
RdRp_knitwork_green_site_rna_tunnel_pure_split4000_batch013.csv

>  <fragmenstein_runtime>  (424) 
6.582093

>  <tags>  (424) 
['Fragmenstein placed']

>  <original ID>  (424) 
WKPUEUDAXGSKRZ-UHFFFAOYSA-N

>  <fragmenstein_error>  (424) 
None

>  <original SMILES>  (424) 
O=C(OCCc1ccnc2ccccc12)c1cscn1

>  <inchikey>  (424) 
WKPUEUDAXGSKRZ-UHFFFAOYSA-N

>  <SLURM_JOB_NAME>  (424) 
BulkDock.place:Flavi_NS5_RdRp:RdRp_knitwork_green_site_rna_tunnel_pure_split4000_batch013

>  <scratch_subdir>  (424) 
/opt/xchem-fragalysis-2/maxwin/BulkDock/SCRATCH/217084/C36729-P136

>  <alias>  (424) 
None

>  <SLURM_JOB_ID>  (424) 
217084

>  <exports>  (424) 
['/opt/xchem-fragalysis-2/maxwin/BulkDock/OUTPUTS/RdRp_knitwork_green_site_rna_tunnel_pure_split4000_batch013_217084.sdf']

$$$$
139302
     RDKit          3D

 22 24  0  0  0  0  0  0  0  0999 V2000
  -32.0385  -34.2916  -14.4581 C   0  0  0  0  0  0  0  0  0  0  0  0
  -31.8096  -33.0707  -15.3279 C   0  0  0  0  0  0  0  0  0  0  0  0
  -30.5151  -32.3340  -14.9638 C   0  0  2  0  0  0  0  0  0  0  0  0
  -30.5149  -30.9615  -15.4968 N   0  0  0  0  0  0  0  0  0  0  0  0
  -30.4831  -30.8051  -16.9469 C   0  0  0  0  0  0  0  0  0  0  0  0
  -29.1596  -30.4310  -17.5677 C   0  0  0  0  0  0  0  0  0  0  0  0
  -27.9778  -30.4630  -16.8316 C   0  0  0  0  0  0  0  0  0  0  0  0
  -26.8031  -30.1406  -17.4599 C   0  0  0  0  0  0  0  0  0  0  0  0
  -25.6393  -30.4359  -16.8017 O   0  0  0  0  0  0  0  0  0  0  0  0
  -24.8865  -29.2558  -16.5899 C   0  0  0  0  0  0  0  0  0  0  0  0
  -26.7030  -29.7534  -18.7400 N   0  0  0  0  0  0  0  0  0  0  0  0
  -27.8157  -29.7692  -19.4748 C   0  0  0  0  0  0  0  0  0  0  0  0
  -27.6975  -29.4983  -20.8257 C   0  0  0  0  0  0  0  0  0  0  0  0
  -28.7982  -29.5683  -21.6735 C   0  0  0  0  0  0  0  0  0  0  0  0
  -30.0518  -29.8611  -21.1650 C   0  0  0  0  0  0  0  0  0  0  0  0
  -30.1942  -30.1334  -19.8132 C   0  0  0  0  0  0  0  0  0  0  0  0
  -29.0809  -30.1083  -18.9456 C   0  0  0  0  0  0  0  0  0  0  0  0
  -29.2278  -33.1068  -15.2040 C   0  0  0  0  0  0  0  0  0  0  0  0
  -28.1903  -33.0366  -14.3861 N   0  0  0  0  0  0  0  0  0  0  0  0
  -27.1451  -33.7893  -14.8831 C   0  0  0  0  0  0  0  0  0  0  0  0
  -27.3904  -34.4369  -16.0721 C   0  0  0  0  0  0  0  0  0  0  0  0
  -28.9836  -34.1005  -16.5952 S   0  0  0  0  0  0  0  0  0  0  0  0
  1  2  1  0
  3  2  1  6
  3  4  1  0
  4  5  1  0
  5  6  1  0
  6  7  2  0
  7  8  1  0
  8  9  1  0
  9 10  1  0
  8 11  2  0
 11 12  1  0
 12 13  2  0
 13 14  1  0
 14 15  2  0
 15 16  1  0
 16 17  2  0
  3 18  1  0
 18 19  2  0
 19 20  1  0
 20 21  2  0
 21 22  1  0
 17  6  1  0
 22 18  1  0
 17 12  1  0
M  END
>  <HIPPO Pose ID>  (425) 
139302

>  <fragmenstein_outcome>  (425) 
acceptable

>  <energy_score>  (425) 
-94.644047

>  <distance_score>  (425) 
0.959766

>  <fragmenstein_mode>  (425) 
expansion

>  <HIPPO Compound ID>  (425) 
40897

>  <name>  (425) 
YQHVIWBTDQJDIB-AWEZNQCLSA-N

>  <ref_pdb>  (425) 
z0496a

>  <ref_mols>  (425) 
z0496a,z1040a

>  <csv_name>  (425) 
RdRp_knitwork_green_site_rna_tunnel_pure_split4000_batch013.csv

>  <fragmenstein_runtime>  (425) 
8.202559

>  <tags>  (425) 
['Fragmenstein placed']

>  <original ID>  (425) 
YQHVIWBTDQJDIB-AWEZNQCLSA-N

>  <fragmenstein_error>  (425) 
None

>  <original SMILES>  (425) 
CC[C@H](NCc1cc(OC)nc2ccccc12)c1nccs1

>  <inchikey>  (425) 
YQHVIWBTDQJDIB-AWEZNQCLSA-N

>  <SLURM_JOB_NAME>  (425) 
BulkDock.place:Flavi_NS5_RdRp:RdRp_knitwork_green_site_rna_tunnel_pure_split4000_batch013

>  <scratch_subdir>  (425) 
/opt/xchem-fragalysis-2/maxwin/BulkDock/SCRATCH/217084/C40897-P136

>  <alias>  (425) 
None

>  <SLURM_JOB_ID>  (425) 
217084

>  <exports>  (425) 
['/opt/xchem-fragalysis-2/maxwin/BulkDock/OUTPUTS/RdRp_knitwork_green_site_rna_tunnel_pure_split4000_batch013_217084.sdf']

$$$$
139313
     RDKit          3D

 17 18  0  0  0  0  0  0  0  0999 V2000
  -25.3798  -33.5372  -19.6933 C   0  0  0  0  0  0  0  0  0  0  0  0
  -26.6164  -32.6566  -19.5868 C   0  0  0  0  0  0  0  0  0  0  0  0
  -26.2302  -31.2540  -19.6602 N   0  0  0  0  0  0  0  0  0  0  0  0
  -27.3876  -30.3408  -19.7158 C   0  0  2  0  0  0  0  0  0  0  0  0
  -26.9255  -28.9362  -20.1735 C   0  0  0  0  0  0  0  0  0  0  0  0
  -26.3710  -28.8783  -21.5834 C   0  0  0  0  0  0  0  0  0  0  0  0
  -27.0099  -29.5102  -22.6570 C   0  0  0  0  0  0  0  0  0  0  0  0
  -26.4663  -29.4025  -23.9285 C   0  0  0  0  0  0  0  0  0  0  0  0
  -25.3631  -28.6909  -24.2030 N   0  0  0  0  0  0  0  0  0  0  0  0
  -24.7485  -28.1021  -23.1573 C   0  0  0  0  0  0  0  0  0  0  0  0
  -25.2080  -28.1546  -21.8510 C   0  0  0  0  0  0  0  0  0  0  0  0
  -28.1570  -30.2429  -18.3981 C   0  0  0  0  0  0  0  0  0  0  0  0
  -29.5319  -30.0283  -18.4346 C   0  0  0  0  0  0  0  0  0  0  0  0
  -30.2337  -29.9921  -17.2362 C   0  0  0  0  0  0  0  0  0  0  0  0
  -29.5704  -30.1988  -16.0392 C   0  0  0  0  0  0  0  0  0  0  0  0
  -28.2069  -30.3925  -16.0867 C   0  0  0  0  0  0  0  0  0  0  0  0
  -27.4833  -30.3910  -17.2249 N   0  0  0  0  0  0  0  0  0  0  0  0
  1  2  1  0
  2  3  1  0
  3  4  1  0
  4  5  1  1
  5  6  1  0
  6  7  2  0
  7  8  1  0
  8  9  2  0
  9 10  1  0
 10 11  2  0
  4 12  1  0
 12 13  2  0
 13 14  1  0
 14 15  2  0
 15 16  1  0
 16 17  2  0
 11  6  1  0
 17 12  1  0
M  END
>  <HIPPO Pose ID>  (426) 
139313

>  <fragmenstein_outcome>  (426) 
acceptable

>  <energy_score>  (426) 
-27.465394

>  <distance_score>  (426) 
0.9739

>  <fragmenstein_mode>  (426) 
expansion

>  <HIPPO Compound ID>  (426) 
42494

>  <name>  (426) 
XTFWKBFRLUIUHJ-CQSZACIVSA-N

>  <ref_pdb>  (426) 
z0386a

>  <ref_mols>  (426) 
z0386a,z0521a

>  <csv_name>  (426) 
RdRp_knitwork_green_site_rna_tunnel_pure_split4000_batch001.csv

>  <fragmenstein_runtime>  (426) 
7.888938

>  <tags>  (426) 
['Fragmenstein placed']

>  <original ID>  (426) 
XTFWKBFRLUIUHJ-CQSZACIVSA-N

>  <fragmenstein_error>  (426) 
None

>  <original SMILES>  (426) 
CCN[C@H](Cc1ccncc1)c1ccccn1

>  <inchikey>  (426) 
XTFWKBFRLUIUHJ-CQSZACIVSA-N

>  <SLURM_JOB_NAME>  (426) 
BulkDock.place:Flavi_NS5_RdRp:RdRp_knitwork_green_site_rna_tunnel_pure_split4000_batch001

>  <scratch_subdir>  (426) 
/opt/xchem-fragalysis-2/maxwin/BulkDock/SCRATCH/217072/C42494-P121

>  <alias>  (426) 
None

>  <SLURM_JOB_ID>  (426) 
217072

>  <exports>  (426) 
['/opt/xchem-fragalysis-2/maxwin/BulkDock/OUTPUTS/RdRp_knitwork_green_site_rna_tunnel_pure_split4000_batch001_217072.sdf']

$$$$
139558
     RDKit          3D

 22 24  0  0  0  0  0  0  0  0999 V2000
  -21.9115  -29.2238  -13.5825 C   0  0  0  0  0  0  0  0  0  0  0  0
  -21.3936  -29.5185  -14.9815 C   0  0  0  0  0  0  0  0  0  0  0  0
  -22.3155  -29.0521  -16.0496 N   0  0  0  0  0  0  0  0  0  0  0  0
  -23.6996  -29.4970  -15.9413 C   0  0  0  0  0  0  0  0  0  0  0  0
  -23.8345  -31.0230  -16.0869 C   0  0  0  0  0  0  0  0  0  0  0  0
  -21.7798  -29.0639  -17.3546 C   0  0  0  0  0  0  0  0  0  0  0  0
  -22.5502  -29.3884  -18.4900 C   0  0  0  0  0  0  0  0  0  0  0  0
  -21.9862  -29.5683  -19.7464 C   0  0  0  0  0  0  0  0  0  0  0  0
  -20.6195  -29.4010  -19.9162 C   0  0  0  0  0  0  0  0  0  0  0  0
  -19.9742  -29.7946  -21.2062 C   0  0  0  0  0  0  0  0  0  0  0  0
  -19.2597  -31.0542  -21.0458 N   0  0  0  0  0  0  0  0  0  0  0  0
  -19.9812  -32.2618  -20.9438 C   0  0  0  0  0  0  0  0  0  0  0  0
  -19.3649  -33.3476  -20.2908 C   0  0  0  0  0  0  0  0  0  0  0  0
  -19.9598  -34.6155  -20.2049 C   0  0  0  0  0  0  0  0  0  0  0  0
  -21.1860  -34.7618  -20.8404 C   0  0  0  0  0  0  0  0  0  0  0  0
  -21.9109  -35.9095  -20.9092 O   0  0  0  0  0  0  0  0  0  0  0  0
  -23.0261  -35.6340  -21.6328 C   0  0  0  0  0  0  0  0  0  0  0  0
  -23.0281  -34.3176  -22.0346 C   0  0  0  0  0  0  0  0  0  0  0  0
  -21.8334  -33.7427  -21.5237 C   0  0  0  0  0  0  0  0  0  0  0  0
  -21.2156  -32.4776  -21.5828 C   0  0  0  0  0  0  0  0  0  0  0  0
  -19.8548  -28.9514  -18.8390 C   0  0  0  0  0  0  0  0  0  0  0  0
  -20.4362  -28.7592  -17.5882 C   0  0  0  0  0  0  0  0  0  0  0  0
  1  2  1  0
  2  3  1  0
  3  4  1  0
  4  5  1  0
  3  6  1  0
  6  7  2  0
  7  8  1  0
  8  9  2  0
  9 10  1  0
 10 11  1  0
 11 12  1  0
 12 13  2  0
 13 14  1  0
 14 15  2  0
 15 16  1  0
 16 17  1  0
 17 18  2  0
 18 19  1  0
 19 20  2  0
  9 21  1  0
 21 22  2  0
 22  6  1  0
 20 12  1  0
 19 15  1  0
M  END
>  <HIPPO Pose ID>  (427) 
139558

>  <fragmenstein_outcome>  (427) 
acceptable

>  <energy_score>  (427) 
-35.785678

>  <distance_score>  (427) 
0.880767

>  <fragmenstein_mode>  (427) 
expansion

>  <HIPPO Compound ID>  (427) 
37075

>  <name>  (427) 
OBPLYCKQEWMODT-UHFFFAOYSA-N

>  <ref_pdb>  (427) 
3vws-b

>  <ref_mols>  (427) 
z0521a,3vws-b

>  <csv_name>  (427) 
RdRp_knitwork_green_site_rna_tunnel_pure_split4000_batch000.csv

>  <fragmenstein_runtime>  (427) 
8.736025

>  <tags>  (427) 
['Fragmenstein placed']

>  <original ID>  (427) 
OBPLYCKQEWMODT-UHFFFAOYSA-N

>  <fragmenstein_error>  (427) 
None

>  <original SMILES>  (427) 
CCN(CC)c1ccc(CNc2ccc3occc3c2)cc1

>  <inchikey>  (427) 
OBPLYCKQEWMODT-UHFFFAOYSA-N

>  <SLURM_JOB_NAME>  (427) 
BulkDock.place:Flavi_NS5_RdRp:RdRp_knitwork_green_site_rna_tunnel_pure_split4000_batch000

>  <scratch_subdir>  (427) 
/opt/xchem-fragalysis-2/maxwin/BulkDock/SCRATCH/217071/C37075-P217

>  <alias>  (427) 
None

>  <SLURM_JOB_ID>  (427) 
217071

>  <exports>  (427) 
['/opt/xchem-fragalysis-2/maxwin/BulkDock/OUTPUTS/RdRp_knitwork_green_site_rna_tunnel_pure_split4000_batch000_217071.sdf']

$$$$
141745
     RDKit          3D

 16 18  0  0  0  0  0  0  0  0999 V2000
  -30.7182  -31.3330  -16.8452 N   0  0  0  0  0  0  0  0  0  0  0  0
  -30.1460  -30.8340  -17.7242 C   0  0  0  0  0  0  0  0  0  0  0  0
  -29.3436  -30.2286  -18.7421 C   0  0  0  0  0  0  0  0  0  0  0  0
  -29.6948  -30.3197  -20.0909 C   0  0  0  0  0  0  0  0  0  0  0  0
  -28.8484  -29.7712  -21.0521 C   0  0  0  0  0  0  0  0  0  0  0  0
  -27.6875  -29.1340  -20.6320 C   0  0  0  0  0  0  0  0  0  0  0  0
  -26.7428  -28.6006  -21.6059 C   0  0  0  0  0  0  0  0  0  0  0  0
  -26.0273  -27.4330  -21.4088 C   0  0  0  0  0  0  0  0  0  0  0  0
  -25.0607  -27.0957  -22.7898 S   0  0  0  0  0  0  0  0  0  0  0  0
  -25.6078  -28.5564  -23.5057 C   0  0  0  0  0  0  0  0  0  0  0  0
  -26.5083  -29.2344  -22.8227 N   0  0  0  0  0  0  0  0  0  0  0  0
  -27.3567  -29.0015  -19.3218 N   0  0  0  0  0  0  0  0  0  0  0  0
  -28.1671  -29.5597  -18.3799 C   0  0  0  0  0  0  0  0  0  0  0  0
  -27.7532  -29.4035  -16.9281 C   0  0  0  0  0  0  0  0  0  0  0  0
  -26.3135  -29.6579  -16.5337 C   0  0  0  0  0  0  0  0  0  0  0  0
  -27.3822  -30.6051  -16.0908 C   0  0  0  0  0  0  0  0  0  0  0  0
  1  2  3  0
  2  3  1  0
  3  4  2  0
  4  5  1  0
  5  6  2  0
  6  7  1  0
  7  8  2  0
  8  9  1  0
  9 10  1  0
 10 11  2  0
  6 12  1  0
 12 13  2  0
 13 14  1  0
 14 15  1  0
 15 16  1  0
 13  3  1  0
 16 14  1  0
 11  7  1  0
M  END
>  <HIPPO Pose ID>  (428) 
141745

>  <fragmenstein_outcome>  (428) 
acceptable

>  <energy_score>  (428) 
-65.299051

>  <distance_score>  (428) 
0.809326

>  <fragmenstein_mode>  (428) 
expansion

>  <HIPPO Compound ID>  (428) 
13699

>  <name>  (428) 
BOFHQGWPXCOGTN-UHFFFAOYSA-N

>  <ref_pdb>  (428) 
z0496a

>  <ref_mols>  (428) 
z0496a,z0637a

>  <csv_name>  (428) 
RdRp_knitwork_green_site_rna_tunnel_pure_split4000_batch015.csv

>  <fragmenstein_runtime>  (428) 
2.577807

>  <tags>  (428) 
['Fragmenstein placed']

>  <original ID>  (428) 
BOFHQGWPXCOGTN-UHFFFAOYSA-N

>  <fragmenstein_error>  (428) 
None

>  <original SMILES>  (428) 
N#Cc1ccc(-c2cscn2)nc1C1CC1

>  <inchikey>  (428) 
BOFHQGWPXCOGTN-UHFFFAOYSA-N

>  <SLURM_JOB_NAME>  (428) 
BulkDock.place:Flavi_NS5_RdRp:RdRp_knitwork_green_site_rna_tunnel_pure_split4000_batch015

>  <scratch_subdir>  (428) 
/opt/xchem-fragalysis-2/maxwin/BulkDock/SCRATCH/217086/C13699-P136

>  <alias>  (428) 
None

>  <SLURM_JOB_ID>  (428) 
217086

>  <exports>  (428) 
['/opt/xchem-fragalysis-2/maxwin/BulkDock/OUTPUTS/RdRp_knitwork_green_site_rna_tunnel_pure_split4000_batch015_217086.sdf']

$$$$
141957
     RDKit          3D

 17 19  0  0  0  0  0  0  0  0999 V2000
  -24.7194  -26.1528  -19.8063 C   0  0  0  0  0  0  0  0  0  0  0  0
  -24.2898  -26.0635  -21.1102 C   0  0  0  0  0  0  0  0  0  0  0  0
  -24.3268  -27.5967  -21.8462 S   0  0  0  0  0  0  0  0  0  0  0  0
  -25.0958  -28.2240  -20.4444 C   0  0  0  0  0  0  0  0  0  0  0  0
  -25.6310  -29.5523  -20.4187 C   0  0  0  0  0  0  0  0  0  0  0  0
  -25.8327  -30.2941  -21.4918 N   0  0  0  0  0  0  0  0  0  0  0  0
  -26.3434  -31.4810  -21.0447 C   0  0  0  0  0  0  0  0  0  0  0  0
  -26.4719  -31.4646  -19.6777 C   0  0  0  0  0  0  0  0  0  0  0  0
  -26.0370  -30.2240  -19.2898 N   0  0  0  0  0  0  0  0  0  0  0  0
  -25.9982  -29.7350  -17.9214 C   0  0  0  0  0  0  0  0  0  0  0  0
  -27.2244  -28.8868  -17.5696 C   0  0  0  0  0  0  0  0  0  0  0  0
  -28.3343  -29.7666  -17.1201 C   0  0  0  0  0  0  0  0  0  0  0  0
  -29.2647  -30.4646  -17.9191 C   0  0  0  0  0  0  0  0  0  0  0  0
  -29.8641  -31.3361  -17.0445 C   0  0  0  0  0  0  0  0  0  0  0  0
  -29.3686  -31.0502  -15.8084 N   0  0  0  0  0  0  0  0  0  0  0  0
  -28.4487  -30.0754  -15.8220 N   0  0  0  0  0  0  0  0  0  0  0  0
  -25.1910  -27.3867  -19.4284 N   0  0  0  0  0  0  0  0  0  0  0  0
  1  2  2  0
  2  3  1  0
  3  4  1  0
  4  5  1  0
  5  6  2  0
  6  7  1  0
  7  8  2  0
  8  9  1  0
  9 10  1  0
 10 11  1  0
 11 12  1  0
 12 13  1  0
 13 14  2  0
 14 15  1  0
 15 16  1  0
  4 17  2  0
 17  1  1  0
  9  5  1  0
 16 12  2  0
M  END
>  <HIPPO Pose ID>  (429) 
141957

>  <fragmenstein_outcome>  (429) 
acceptable

>  <energy_score>  (429) 
-96.124834

>  <distance_score>  (429) 
0.988491

>  <fragmenstein_mode>  (429) 
expansion

>  <HIPPO Compound ID>  (429) 
18941

>  <name>  (429) 
BZZFGCWXOSDEJP-UHFFFAOYSA-N

>  <ref_pdb>  (429) 
d0378a

>  <ref_mols>  (429) 
d0378a,z0384a

>  <csv_name>  (429) 
RdRp_knitwork_green_site_rna_tunnel_pure_split4000_batch003.csv

>  <fragmenstein_runtime>  (429) 
2.185966

>  <tags>  (429) 
['Fragmenstein placed']

>  <original ID>  (429) 
BZZFGCWXOSDEJP-UHFFFAOYSA-N

>  <fragmenstein_error>  (429) 
None

>  <original SMILES>  (429) 
c1csc(-c2nccn2CCc2cc[nH]n2)n1

>  <inchikey>  (429) 
BZZFGCWXOSDEJP-UHFFFAOYSA-N

>  <SLURM_JOB_NAME>  (429) 
BulkDock.place:Flavi_NS5_RdRp:RdRp_knitwork_green_site_rna_tunnel_pure_split4000_batch003

>  <scratch_subdir>  (429) 
/opt/xchem-fragalysis-2/maxwin/BulkDock/SCRATCH/217074/C18941-P1

>  <alias>  (429) 
None

>  <SLURM_JOB_ID>  (429) 
217074

>  <exports>  (429) 
['/opt/xchem-fragalysis-2/maxwin/BulkDock/OUTPUTS/RdRp_knitwork_green_site_rna_tunnel_pure_split4000_batch003_217074.sdf']

$$$$
142492
     RDKit          3D

 17 19  0  0  0  0  0  0  0  0999 V2000
  -24.4775  -31.5402  -19.9815 O   0  0  0  0  0  0  0  0  0  0  0  0
  -24.2321  -31.5112  -18.8402 C   0  0  0  0  0  0  0  0  0  0  0  0
  -25.0284  -30.9068  -17.6578 N   0  0  0  0  0  0  0  0  0  0  0  0
  -26.2754  -30.3253  -17.6246 C   0  0  0  0  0  0  0  0  0  0  0  0
  -26.8065  -29.9453  -16.4059 C   0  0  0  0  0  0  0  0  0  0  0  0
  -28.1514  -29.5906  -16.3577 C   0  0  0  0  0  0  0  0  0  0  0  0
  -28.9139  -29.6486  -17.5209 C   0  0  0  0  0  0  0  0  0  0  0  0
  -28.3084  -30.0304  -18.7162 C   0  0  0  0  0  0  0  0  0  0  0  0
  -29.0411  -30.2599  -20.0087 C   0  0  0  0  0  0  0  0  0  0  0  0
  -30.4124  -29.7488  -20.3186 C   0  0  0  0  0  0  0  0  0  0  0  0
  -29.2180  -29.0938  -20.9494 C   0  0  0  0  0  0  0  0  0  0  0  0
  -26.9894  -30.3227  -18.7554 N   0  0  0  0  0  0  0  0  0  0  0  0
  -23.0299  -32.2267  -18.3366 C   0  0  0  0  0  0  0  0  0  0  0  0
  -22.4018  -32.0420  -17.1144 C   0  0  0  0  0  0  0  0  0  0  0  0
  -21.1297  -33.1719  -16.9023 S   0  0  0  0  0  0  0  0  0  0  0  0
  -21.4673  -33.8075  -18.4516 C   0  0  0  0  0  0  0  0  0  0  0  0
  -22.4351  -33.2240  -19.1140 N   0  0  0  0  0  0  0  0  0  0  0  0
  1  2  2  0
  2  3  1  0
  3  4  1  0
  4  5  2  0
  5  6  1  0
  6  7  2  0
  7  8  1  0
  8  9  1  0
  9 10  1  0
 10 11  1  0
  8 12  2  0
  2 13  1  0
 13 14  2  0
 14 15  1  0
 15 16  1  0
 16 17  2  0
 12  4  1  0
 17 13  1  0
 11  9  1  0
M  END
>  <HIPPO Pose ID>  (430) 
142492

>  <fragmenstein_outcome>  (430) 
acceptable

>  <energy_score>  (430) 
-98.010971

>  <distance_score>  (430) 
0.873464

>  <fragmenstein_mode>  (430) 
expansion

>  <HIPPO Compound ID>  (430) 
14806

>  <name>  (430) 
LZEUFUVFMOTZAW-UHFFFAOYSA-N

>  <ref_pdb>  (430) 
z0637a

>  <ref_mols>  (430) 
z0496a,z0637a

>  <csv_name>  (430) 
RdRp_knitwork_green_site_rna_tunnel_pure_split4000_batch015.csv

>  <fragmenstein_runtime>  (430) 
3.987885

>  <tags>  (430) 
['Fragmenstein placed']

>  <original ID>  (430) 
LZEUFUVFMOTZAW-UHFFFAOYSA-N

>  <fragmenstein_error>  (430) 
None

>  <original SMILES>  (430) 
O=C(Nc1cccc(C2CC2)n1)c1cscn1

>  <inchikey>  (430) 
LZEUFUVFMOTZAW-UHFFFAOYSA-N

>  <SLURM_JOB_NAME>  (430) 
BulkDock.place:Flavi_NS5_RdRp:RdRp_knitwork_green_site_rna_tunnel_pure_split4000_batch015

>  <scratch_subdir>  (430) 
/opt/xchem-fragalysis-2/maxwin/BulkDock/SCRATCH/217086/C14806-P151

>  <alias>  (430) 
None

>  <SLURM_JOB_ID>  (430) 
217086

>  <exports>  (430) 
['/opt/xchem-fragalysis-2/maxwin/BulkDock/OUTPUTS/RdRp_knitwork_green_site_rna_tunnel_pure_split4000_batch015_217086.sdf']

$$$$
143399
     RDKit          3D

 19 20  0  0  0  0  0  0  0  0999 V2000
  -24.8260  -33.9347  -18.3223 C   0  0  0  0  0  0  0  0  0  0  0  0
  -25.5916  -34.1529  -19.6156 C   0  0  0  0  0  0  0  0  0  0  0  0
  -24.7278  -34.0138  -20.8771 C   0  0  0  0  0  0  0  0  0  0  0  0
  -24.2252  -32.5910  -21.2846 C   0  0  2  0  0  0  0  0  0  0  0  0
  -25.4442  -31.6437  -21.3489 C   0  0  0  0  0  0  0  0  0  0  0  0
  -26.0545  -31.4224  -22.3208 O   0  0  0  0  0  0  0  0  0  0  0  0
  -25.6904  -31.1877  -19.8731 N   0  0  0  0  0  0  0  0  0  0  0  0
  -26.7430  -30.4807  -19.3143 C   0  0  0  0  0  0  0  0  0  0  0  0
  -27.9248  -30.3280  -20.0269 C   0  0  0  0  0  0  0  0  0  0  0  0
  -29.0502  -29.9546  -19.3251 C   0  0  0  0  0  0  0  0  0  0  0  0
  -29.0475  -29.6650  -18.0048 N   0  0  0  0  0  0  0  0  0  0  0  0
  -27.8688  -29.7593  -17.3576 C   0  0  0  0  0  0  0  0  0  0  0  0
  -26.6959  -30.1695  -17.9614 C   0  0  0  0  0  0  0  0  0  0  0  0
  -23.4770  -32.7294  -22.6048 C   0  0  0  0  0  0  0  0  0  0  0  0
  -22.1463  -32.3394  -22.7054 C   0  0  0  0  0  0  0  0  0  0  0  0
  -21.4531  -32.6040  -23.8842 C   0  0  0  0  0  0  0  0  0  0  0  0
  -22.0945  -33.2441  -24.9354 C   0  0  0  0  0  0  0  0  0  0  0  0
  -23.4177  -33.5936  -24.7629 C   0  0  0  0  0  0  0  0  0  0  0  0
  -24.1037  -33.3687  -23.6247 N   0  0  0  0  0  0  0  0  0  0  0  0
  1  2  1  0
  2  3  1  0
  4  3  1  6
  4  5  1  0
  5  6  2  0
  5  7  1  0
  7  8  1  0
  8  9  2  0
  9 10  1  0
 10 11  2  0
 11 12  1  0
 12 13  2  0
  4 14  1  0
 14 15  2  0
 15 16  1  0
 16 17  2  0
 17 18  1  0
 18 19  2  0
 13  8  1  0
 19 14  1  0
M  END
>  <HIPPO Pose ID>  (431) 
143399

>  <fragmenstein_outcome>  (431) 
acceptable

>  <energy_score>  (431) 
-28.333395

>  <distance_score>  (431) 
0.916706

>  <fragmenstein_mode>  (431) 
expansion

>  <HIPPO Compound ID>  (431) 
26252

>  <name>  (431) 
VSGWWMZCMPYXNR-ZDUSSCGKSA-N

>  <ref_pdb>  (431) 
z0411a

>  <ref_mols>  (431) 
d0472b,z0411a

>  <csv_name>  (431) 
RdRp_knitwork_green_site_rna_tunnel_pure_split4000_batch011.csv

>  <fragmenstein_runtime>  (431) 
3.752145

>  <tags>  (431) 
['Fragmenstein placed']

>  <original ID>  (431) 
VSGWWMZCMPYXNR-ZDUSSCGKSA-N

>  <fragmenstein_error>  (431) 
None

>  <original SMILES>  (431) 
CCC[C@H](C(=O)Nc1ccncc1)c1ccccn1

>  <inchikey>  (431) 
VSGWWMZCMPYXNR-ZDUSSCGKSA-N

>  <SLURM_JOB_NAME>  (431) 
BulkDock.place:Flavi_NS5_RdRp:RdRp_knitwork_green_site_rna_tunnel_pure_split4000_batch011

>  <scratch_subdir>  (431) 
/opt/xchem-fragalysis-2/maxwin/BulkDock/SCRATCH/217082/C26252-P123

>  <alias>  (431) 
None

>  <SLURM_JOB_ID>  (431) 
217082

>  <exports>  (431) 
['/opt/xchem-fragalysis-2/maxwin/BulkDock/OUTPUTS/RdRp_knitwork_green_site_rna_tunnel_pure_split4000_batch011_217082.sdf']

$$$$
144119
     RDKit          3D

 19 21  0  0  0  0  0  0  0  0999 V2000
  -27.2202  -31.6361  -22.4231 C   0  0  0  0  0  0  0  0  0  0  0  0
  -26.9067  -30.7175  -21.2592 C   0  0  0  0  0  0  0  0  0  0  0  0
  -27.6393  -29.5046  -21.4436 O   0  0  0  0  0  0  0  0  0  0  0  0
  -28.6634  -29.0556  -20.6504 C   0  0  0  0  0  0  0  0  0  0  0  0
  -29.0853  -27.9202  -20.8720 O   0  0  0  0  0  0  0  0  0  0  0  0
  -29.2381  -29.9180  -19.4741 C   0  0  0  0  0  0  0  0  0  0  0  0
  -28.7391  -29.5515  -18.1228 N   0  0  0  0  0  0  0  0  0  0  0  0
  -29.5545  -29.5356  -16.9022 C   0  0  0  0  0  0  0  0  0  0  0  0
  -29.0212  -30.4348  -15.7865 C   0  0  0  0  0  0  0  0  0  0  0  0
  -27.5391  -30.7649  -15.8894 C   0  0  0  0  0  0  0  0  0  0  0  0
  -26.8004  -29.7209  -16.6698 C   0  0  0  0  0  0  0  0  0  0  0  0
  -25.5169  -29.3381  -16.2940 C   0  0  0  0  0  0  0  0  0  0  0  0
  -24.8464  -28.3771  -17.0373 C   0  0  0  0  0  0  0  0  0  0  0  0
  -25.4193  -27.8225  -18.1741 C   0  0  0  0  0  0  0  0  0  0  0  0
  -26.6971  -28.2179  -18.5559 C   0  0  0  0  0  0  0  0  0  0  0  0
  -27.4054  -29.1705  -17.8156 C   0  0  0  0  0  0  0  0  0  0  0  0
  -29.1784  -31.4410  -19.6209 C   0  0  0  0  0  0  0  0  0  0  0  0
  -30.6044  -31.5834  -19.1702 C   0  0  0  0  0  0  0  0  0  0  0  0
  -30.7931  -30.1199  -19.5786 C   0  0  0  0  0  0  0  0  0  0  0  0
  1  2  1  0
  2  3  1  0
  3  4  1  0
  4  5  2  0
  4  6  1  0
  6  7  1  0
  7  8  1  0
  8  9  1  0
  9 10  1  0
 10 11  1  0
 11 12  2  0
 12 13  1  0
 13 14  2  0
 14 15  1  0
 15 16  2  0
  6 17  1  0
 17 18  1  0
 18 19  1  0
 19  6  1  0
 16  7  1  0
 16 11  1  0
M  END
>  <HIPPO Pose ID>  (432) 
144119

>  <fragmenstein_outcome>  (432) 
acceptable

>  <energy_score>  (432) 
-163.909005

>  <distance_score>  (432) 
0.927326

>  <fragmenstein_mode>  (432) 
expansion

>  <HIPPO Compound ID>  (432) 
7817

>  <name>  (432) 
KCOFJMZABDSXHW-UHFFFAOYSA-N

>  <ref_pdb>  (432) 
z0165a

>  <ref_mols>  (432) 
z0165a,z0628a

>  <csv_name>  (432) 
RdRp_knitwork_green_site_rna_tunnel_pure_split4000_batch007.csv

>  <fragmenstein_runtime>  (432) 
3.752826

>  <tags>  (432) 
['Fragmenstein placed']

>  <original ID>  (432) 
KCOFJMZABDSXHW-UHFFFAOYSA-N

>  <fragmenstein_error>  (432) 
None

>  <original SMILES>  (432) 
CCOC(=O)C1(N2CCCc3ccccc32)CCC1

>  <inchikey>  (432) 
KCOFJMZABDSXHW-UHFFFAOYSA-N

>  <SLURM_JOB_NAME>  (432) 
BulkDock.place:Flavi_NS5_RdRp:RdRp_knitwork_green_site_rna_tunnel_pure_split4000_batch007

>  <scratch_subdir>  (432) 
/opt/xchem-fragalysis-2/maxwin/BulkDock/SCRATCH/217078/C7817-P3

>  <alias>  (432) 
None

>  <SLURM_JOB_ID>  (432) 
217078

>  <exports>  (432) 
['/opt/xchem-fragalysis-2/maxwin/BulkDock/OUTPUTS/RdRp_knitwork_green_site_rna_tunnel_pure_split4000_batch007_217078.sdf']

$$$$
144458
     RDKit          3D

 22 24  0  0  0  0  0  0  0  0999 V2000
  -27.3282  -30.5890  -23.0744 O   0  0  0  0  0  0  0  0  0  0  0  0
  -27.8910  -31.6290  -22.7562 C   0  0  0  0  0  0  0  0  0  0  0  0
  -28.4615  -31.8527  -21.5417 O   0  0  0  0  0  0  0  0  0  0  0  0
  -28.0054  -30.9734  -20.5031 C   0  0  0  0  0  0  0  0  0  0  0  0
  -29.0450  -29.9227  -20.0945 C   0  0  0  0  0  0  0  0  0  0  0  0
  -28.8807  -29.5220  -18.6764 N   0  0  0  0  0  0  0  0  0  0  0  0
  -29.7112  -30.2769  -17.7311 C   0  0  0  0  0  0  0  0  0  0  0  0
  -29.3325  -30.0569  -16.2767 C   0  0  0  0  0  0  0  0  0  0  0  0
  -27.8527  -30.3291  -16.0796 C   0  0  0  0  0  0  0  0  0  0  0  0
  -27.0679  -29.4647  -17.0264 C   0  0  0  0  0  0  0  0  0  0  0  0
  -25.7828  -29.0502  -16.6574 C   0  0  0  0  0  0  0  0  0  0  0  0
  -25.0639  -28.1934  -17.4824 C   0  0  0  0  0  0  0  0  0  0  0  0
  -25.6014  -27.7656  -18.6879 C   0  0  0  0  0  0  0  0  0  0  0  0
  -26.8629  -28.2153  -19.0750 C   0  0  0  0  0  0  0  0  0  0  0  0
  -27.6154  -29.0861  -18.2689 C   0  0  0  0  0  0  0  0  0  0  0  0
  -27.9498  -32.8114  -23.5822 C   0  0  0  0  0  0  0  0  0  0  0  0
  -27.1684  -33.1721  -24.6656 C   0  0  0  0  0  0  0  0  0  0  0  0
  -27.6655  -34.4072  -25.1382 C   0  0  0  0  0  0  0  0  0  0  0  0
  -28.7181  -34.7449  -24.3135 C   0  0  0  0  0  0  0  0  0  0  0  0
  -29.6525  -35.8957  -24.2898 C   0  0  0  0  0  0  0  0  0  0  0  0
  -30.1868  -36.0466  -25.5976 O   0  0  0  0  0  0  0  0  0  0  0  0
  -28.8773  -33.7916  -23.3469 O   0  0  0  0  0  0  0  0  0  0  0  0
  1  2  2  0
  2  3  1  0
  3  4  1  0
  4  5  1  0
  5  6  1  0
  6  7  1  0
  7  8  1  0
  8  9  1  0
  9 10  1  0
 10 11  2  0
 11 12  1  0
 12 13  2  0
 13 14  1  0
 14 15  2  0
  2 16  1  0
 16 17  2  0
 17 18  1  0
 18 19  2  0
 19 20  1  0
 20 21  1  0
 19 22  1  0
 15  6  1  0
 22 16  1  0
 15 10  1  0
M  END
>  <HIPPO Pose ID>  (433) 
144458

>  <fragmenstein_outcome>  (433) 
acceptable

>  <energy_score>  (433) 
-44.837862

>  <distance_score>  (433) 
0.998798

>  <fragmenstein_mode>  (433) 
expansion

>  <HIPPO Compound ID>  (433) 
27520

>  <name>  (433) 
QQJXAHYHBNBEKE-UHFFFAOYSA-N

>  <ref_pdb>  (433) 
z0165a

>  <ref_mols>  (433) 
z0165a,z0628a

>  <csv_name>  (433) 
RdRp_knitwork_green_site_rna_tunnel_pure_split4000_batch007.csv

>  <fragmenstein_runtime>  (433) 
5.916869

>  <tags>  (433) 
['Fragmenstein placed']

>  <original ID>  (433) 
QQJXAHYHBNBEKE-UHFFFAOYSA-N

>  <fragmenstein_error>  (433) 
None

>  <original SMILES>  (433) 
O=C(OCCN1CCCc2ccccc21)c1ccc(CO)o1

>  <inchikey>  (433) 
QQJXAHYHBNBEKE-UHFFFAOYSA-N

>  <SLURM_JOB_NAME>  (433) 
BulkDock.place:Flavi_NS5_RdRp:RdRp_knitwork_green_site_rna_tunnel_pure_split4000_batch007

>  <scratch_subdir>  (433) 
/opt/xchem-fragalysis-2/maxwin/BulkDock/SCRATCH/217078/C27520-P3

>  <alias>  (433) 
None

>  <SLURM_JOB_ID>  (433) 
217078

>  <exports>  (433) 
['/opt/xchem-fragalysis-2/maxwin/BulkDock/OUTPUTS/RdRp_knitwork_green_site_rna_tunnel_pure_split4000_batch007_217078.sdf']

$$$$
144555
     RDKit          3D

 24 27  0  0  0  0  0  0  0  0999 V2000
  -27.3065  -30.5339  -23.1236 O   0  0  0  0  0  0  0  0  0  0  0  0
  -27.7280  -31.6128  -22.7288 C   0  0  0  0  0  0  0  0  0  0  0  0
  -28.1310  -31.8624  -21.4561 O   0  0  0  0  0  0  0  0  0  0  0  0
  -27.6772  -30.9006  -20.4938 C   0  0  0  0  0  0  0  0  0  0  0  0
  -28.7319  -29.8290  -20.1817 C   0  0  0  0  0  0  0  0  0  0  0  0
  -28.7305  -29.4612  -18.7441 N   0  0  0  0  0  0  0  0  0  0  0  0
  -29.6168  -30.2839  -17.9093 C   0  0  0  0  0  0  0  0  0  0  0  0
  -29.4104  -30.0638  -16.4202 C   0  0  0  0  0  0  0  0  0  0  0  0
  -27.9577  -30.3227  -16.0636 C   0  0  0  0  0  0  0  0  0  0  0  0
  -27.0713  -29.4778  -16.9345 C   0  0  0  0  0  0  0  0  0  0  0  0
  -25.8015  -29.1307  -16.4617 C   0  0  0  0  0  0  0  0  0  0  0  0
  -24.9818  -28.3000  -17.2146 C   0  0  0  0  0  0  0  0  0  0  0  0
  -25.4088  -27.8149  -18.4428 C   0  0  0  0  0  0  0  0  0  0  0  0
  -26.6558  -28.1951  -18.9321 C   0  0  0  0  0  0  0  0  0  0  0  0
  -27.4979  -29.0590  -18.2106 C   0  0  0  0  0  0  0  0  0  0  0  0
  -27.7728  -32.7925  -23.5763 C   0  0  0  0  0  0  0  0  0  0  0  0
  -26.9943  -33.0206  -24.7489 C   0  0  0  0  0  0  0  0  0  0  0  0
  -27.3738  -34.2330  -25.2793 C   0  0  0  0  0  0  0  0  0  0  0  0
  -26.9964  -34.9761  -26.4350 C   0  0  0  0  0  0  0  0  0  0  0  0
  -27.5938  -36.1572  -26.6866 C   0  0  0  0  0  0  0  0  0  0  0  0
  -28.6168  -36.6984  -25.8060 C   0  0  0  0  0  0  0  0  0  0  0  0
  -28.9642  -36.0041  -24.7097 C   0  0  0  0  0  0  0  0  0  0  0  0
  -28.3429  -34.7850  -24.4491 N   0  0  0  0  0  0  0  0  0  0  0  0
  -28.5511  -33.9236  -23.3970 C   0  0  0  0  0  0  0  0  0  0  0  0
  1  2  2  0
  2  3  1  0
  3  4  1  0
  4  5  1  0
  5  6  1  0
  6  7  1  0
  7  8  1  0
  8  9  1  0
  9 10  1  0
 10 11  2  0
 11 12  1  0
 12 13  2  0
 13 14  1  0
 14 15  2  0
  2 16  1  0
 16 17  1  0
 17 18  2  0
 18 19  1  0
 19 20  2  0
 20 21  1  0
 21 22  2  0
 22 23  1  0
 23 24  1  0
 15  6  1  0
 24 16  2  0
 15 10  1  0
 23 18  1  0
M  END
>  <HIPPO Pose ID>  (434) 
144555

>  <fragmenstein_outcome>  (434) 
acceptable

>  <energy_score>  (434) 
-39.892167

>  <distance_score>  (434) 
0.977162

>  <fragmenstein_mode>  (434) 
expansion

>  <HIPPO Compound ID>  (434) 
27991

>  <name>  (434) 
AFFRRVMMHWFGOI-UHFFFAOYSA-N

>  <ref_pdb>  (434) 
z0165a

>  <ref_mols>  (434) 
z0165a,z0628a

>  <csv_name>  (434) 
RdRp_knitwork_green_site_rna_tunnel_pure_split4000_batch007.csv

>  <fragmenstein_runtime>  (434) 
7.008337

>  <tags>  (434) 
['Fragmenstein placed']

>  <original ID>  (434) 
AFFRRVMMHWFGOI-UHFFFAOYSA-N

>  <fragmenstein_error>  (434) 
None

>  <original SMILES>  (434) 
O=C(OCCN1CCCc2ccccc21)c1cc2ccccn2c1

>  <inchikey>  (434) 
AFFRRVMMHWFGOI-UHFFFAOYSA-N

>  <SLURM_JOB_NAME>  (434) 
BulkDock.place:Flavi_NS5_RdRp:RdRp_knitwork_green_site_rna_tunnel_pure_split4000_batch007

>  <scratch_subdir>  (434) 
/opt/xchem-fragalysis-2/maxwin/BulkDock/SCRATCH/217078/C27991-P3

>  <alias>  (434) 
None

>  <SLURM_JOB_ID>  (434) 
217078

>  <exports>  (434) 
['/opt/xchem-fragalysis-2/maxwin/BulkDock/OUTPUTS/RdRp_knitwork_green_site_rna_tunnel_pure_split4000_batch007_217078.sdf']

$$$$
144594
     RDKit          3D

 21 23  0  0  0  0  0  0  0  0999 V2000
  -27.5058  -31.3871  -23.2721 O   0  0  0  0  0  0  0  0  0  0  0  0
  -27.4216  -31.8516  -22.1394 C   0  0  0  0  0  0  0  0  0  0  0  0
  -28.1936  -31.4513  -21.0855 O   0  0  0  0  0  0  0  0  0  0  0  0
  -28.7083  -30.1336  -21.2550 C   0  0  0  0  0  0  0  0  0  0  0  0
  -29.5310  -29.6591  -20.0556 C   0  0  0  0  0  0  0  0  0  0  0  0
  -28.9105  -29.7008  -18.7155 N   0  0  0  0  0  0  0  0  0  0  0  0
  -29.7492  -30.3130  -17.6766 C   0  0  0  0  0  0  0  0  0  0  0  0
  -29.2646  -30.1035  -16.2507 C   0  0  0  0  0  0  0  0  0  0  0  0
  -27.7643  -30.2828  -16.1545 C   0  0  0  0  0  0  0  0  0  0  0  0
  -27.1175  -29.3242  -17.1174 C   0  0  0  0  0  0  0  0  0  0  0  0
  -25.8459  -28.8103  -16.8181 C   0  0  0  0  0  0  0  0  0  0  0  0
  -25.2265  -27.9312  -17.6998 C   0  0  0  0  0  0  0  0  0  0  0  0
  -25.8794  -27.5427  -18.8617 C   0  0  0  0  0  0  0  0  0  0  0  0
  -27.1307  -28.0843  -19.1737 C   0  0  0  0  0  0  0  0  0  0  0  0
  -27.7588  -29.0238  -18.3453 C   0  0  0  0  0  0  0  0  0  0  0  0
  -26.4074  -32.8237  -21.7467 C   0  0  0  0  0  0  0  0  0  0  0  0
  -25.9790  -33.9002  -22.6124 N   0  0  0  0  0  0  0  0  0  0  0  0
  -25.0150  -34.6297  -22.0551 C   0  0  0  0  0  0  0  0  0  0  0  0
  -24.4613  -34.1407  -20.4407 S   0  0  0  0  0  0  0  0  0  0  0  0
  -25.6359  -32.7605  -20.5614 C   0  0  0  0  0  0  0  0  0  0  0  0
  -25.7387  -31.3929  -19.2632 Br  0  0  0  0  0  0  0  0  0  0  0  0
  1  2  2  0
  2  3  1  0
  3  4  1  0
  4  5  1  0
  5  6  1  0
  6  7  1  0
  7  8  1  0
  8  9  1  0
  9 10  1  0
 10 11  2  0
 11 12  1  0
 12 13  2  0
 13 14  1  0
 14 15  2  0
  2 16  1  0
 16 17  1  0
 17 18  2  0
 18 19  1  0
 19 20  1  0
 20 21  1  0
 15  6  1  0
 20 16  2  0
 15 10  1  0
M  END
>  <HIPPO Pose ID>  (435) 
144594

>  <fragmenstein_outcome>  (435) 
acceptable

>  <energy_score>  (435) 
-67.37347

>  <distance_score>  (435) 
0.993176

>  <fragmenstein_mode>  (435) 
expansion

>  <HIPPO Compound ID>  (435) 
28106

>  <name>  (435) 
SGOQIRYDERXCCT-UHFFFAOYSA-N

>  <ref_pdb>  (435) 
z0165a

>  <ref_mols>  (435) 
z0165a,z0628a

>  <csv_name>  (435) 
RdRp_knitwork_green_site_rna_tunnel_pure_split4000_batch007.csv

>  <fragmenstein_runtime>  (435) 
3.149662

>  <tags>  (435) 
['Fragmenstein placed']

>  <original ID>  (435) 
SGOQIRYDERXCCT-UHFFFAOYSA-N

>  <fragmenstein_error>  (435) 
None

>  <original SMILES>  (435) 
O=C(OCCN1CCCc2ccccc21)c1ncsc1Br

>  <inchikey>  (435) 
SGOQIRYDERXCCT-UHFFFAOYSA-N

>  <SLURM_JOB_NAME>  (435) 
BulkDock.place:Flavi_NS5_RdRp:RdRp_knitwork_green_site_rna_tunnel_pure_split4000_batch007

>  <scratch_subdir>  (435) 
/opt/xchem-fragalysis-2/maxwin/BulkDock/SCRATCH/217078/C28106-P3

>  <alias>  (435) 
None

>  <SLURM_JOB_ID>  (435) 
217078

>  <exports>  (435) 
['/opt/xchem-fragalysis-2/maxwin/BulkDock/OUTPUTS/RdRp_knitwork_green_site_rna_tunnel_pure_split4000_batch007_217078.sdf']

$$$$
144627
     RDKit          3D

 21 23  0  0  0  0  0  0  0  0999 V2000
  -27.3236  -30.4472  -23.0215 O   0  0  0  0  0  0  0  0  0  0  0  0
  -27.7243  -31.5453  -22.6628 C   0  0  0  0  0  0  0  0  0  0  0  0
  -28.1424  -31.8370  -21.4058 O   0  0  0  0  0  0  0  0  0  0  0  0
  -27.7086  -30.8949  -20.4179 C   0  0  0  0  0  0  0  0  0  0  0  0
  -28.7539  -29.8106  -20.1236 C   0  0  0  0  0  0  0  0  0  0  0  0
  -28.7467  -29.4315  -18.6893 N   0  0  0  0  0  0  0  0  0  0  0  0
  -29.6324  -30.2503  -17.8479 C   0  0  0  0  0  0  0  0  0  0  0  0
  -29.4038  -30.0427  -16.3609 C   0  0  0  0  0  0  0  0  0  0  0  0
  -27.9494  -30.3194  -16.0255 C   0  0  0  0  0  0  0  0  0  0  0  0
  -27.0668  -29.4733  -16.8994 C   0  0  0  0  0  0  0  0  0  0  0  0
  -25.7898  -29.1374  -16.4392 C   0  0  0  0  0  0  0  0  0  0  0  0
  -24.9742  -28.3051  -17.1950 C   0  0  0  0  0  0  0  0  0  0  0  0
  -25.4116  -27.8085  -18.4152 C   0  0  0  0  0  0  0  0  0  0  0  0
  -26.6660  -28.1783  -18.8929 C   0  0  0  0  0  0  0  0  0  0  0  0
  -27.5052  -29.0414  -18.1666 C   0  0  0  0  0  0  0  0  0  0  0  0
  -27.7156  -32.7083  -23.5181 C   0  0  0  0  0  0  0  0  0  0  0  0
  -26.9350  -32.8323  -24.6474 C   0  0  0  0  0  0  0  0  0  0  0  0
  -27.1469  -34.0263  -25.2526 O   0  0  0  0  0  0  0  0  0  0  0  0
  -28.0389  -34.7125  -24.4839 C   0  0  0  0  0  0  0  0  0  0  0  0
  -28.5918  -36.2936  -24.8592 Cl  0  0  0  0  0  0  0  0  0  0  0  0
  -28.4070  -33.9459  -23.4001 C   0  0  0  0  0  0  0  0  0  0  0  0
  1  2  2  0
  2  3  1  0
  3  4  1  0
  4  5  1  0
  5  6  1  0
  6  7  1  0
  7  8  1  0
  8  9  1  0
  9 10  1  0
 10 11  2  0
 11 12  1  0
 12 13  2  0
 13 14  1  0
 14 15  2  0
  2 16  1  0
 16 17  2  0
 17 18  1  0
 18 19  1  0
 19 20  1  0
 19 21  2  0
 15  6  1  0
 21 16  1  0
 15 10  1  0
M  END
>  <HIPPO Pose ID>  (436) 
144627

>  <fragmenstein_outcome>  (436) 
acceptable

>  <energy_score>  (436) 
-33.234198

>  <distance_score>  (436) 
0.969344

>  <fragmenstein_mode>  (436) 
expansion

>  <HIPPO Compound ID>  (436) 
28192

>  <name>  (436) 
NHUDYKOWUPKENH-UHFFFAOYSA-N

>  <ref_pdb>  (436) 
z0165a

>  <ref_mols>  (436) 
z0165a,z0628a

>  <csv_name>  (436) 
RdRp_knitwork_green_site_rna_tunnel_pure_split4000_batch007.csv

>  <fragmenstein_runtime>  (436) 
5.44358

>  <tags>  (436) 
['Fragmenstein placed']

>  <original ID>  (436) 
NHUDYKOWUPKENH-UHFFFAOYSA-N

>  <fragmenstein_error>  (436) 
None

>  <original SMILES>  (436) 
O=C(OCCN1CCCc2ccccc21)c1coc(Cl)c1

>  <inchikey>  (436) 
NHUDYKOWUPKENH-UHFFFAOYSA-N

>  <SLURM_JOB_NAME>  (436) 
BulkDock.place:Flavi_NS5_RdRp:RdRp_knitwork_green_site_rna_tunnel_pure_split4000_batch007

>  <scratch_subdir>  (436) 
/opt/xchem-fragalysis-2/maxwin/BulkDock/SCRATCH/217078/C28192-P3

>  <alias>  (436) 
None

>  <SLURM_JOB_ID>  (436) 
217078

>  <exports>  (436) 
['/opt/xchem-fragalysis-2/maxwin/BulkDock/OUTPUTS/RdRp_knitwork_green_site_rna_tunnel_pure_split4000_batch007_217078.sdf']

$$$$
144839
     RDKit          3D

 23 26  0  0  0  0  0  0  0  0999 V2000
  -27.2996  -30.9824  -23.2564 O   0  0  0  0  0  0  0  0  0  0  0  0
  -27.8994  -31.9143  -22.7337 C   0  0  0  0  0  0  0  0  0  0  0  0
  -28.4351  -31.8756  -21.4825 O   0  0  0  0  0  0  0  0  0  0  0  0
  -27.9186  -30.8639  -20.6047 C   0  0  0  0  0  0  0  0  0  0  0  0
  -29.0185  -29.9128  -20.1069 C   0  0  0  0  0  0  0  0  0  0  0  0
  -28.8405  -29.5479  -18.6820 N   0  0  0  0  0  0  0  0  0  0  0  0
  -29.6717  -30.3158  -17.7505 C   0  0  0  0  0  0  0  0  0  0  0  0
  -29.3024  -30.1068  -16.2918 C   0  0  0  0  0  0  0  0  0  0  0  0
  -27.8195  -30.3607  -16.0906 C   0  0  0  0  0  0  0  0  0  0  0  0
  -27.0405  -29.4770  -17.0248 C   0  0  0  0  0  0  0  0  0  0  0  0
  -25.7614  -29.0525  -16.6484 C   0  0  0  0  0  0  0  0  0  0  0  0
  -25.0482  -28.1832  -17.4654 C   0  0  0  0  0  0  0  0  0  0  0  0
  -25.5867  -27.7498  -18.6686 C   0  0  0  0  0  0  0  0  0  0  0  0
  -26.8425  -28.2086  -19.0625 C   0  0  0  0  0  0  0  0  0  0  0  0
  -27.5870  -29.0950  -18.2664 C   0  0  0  0  0  0  0  0  0  0  0  0
  -28.0650  -33.2150  -23.3659 C   0  0  0  0  0  0  0  0  0  0  0  0
  -28.9627  -34.1773  -22.9258 N   0  0  0  0  0  0  0  0  0  0  0  0
  -28.7749  -35.1864  -23.7410 C   0  0  0  0  0  0  0  0  0  0  0  0
  -27.8300  -34.9854  -24.6938 O   0  0  0  0  0  0  0  0  0  0  0  0
  -27.3594  -33.7234  -24.4437 C   0  0  0  0  0  0  0  0  0  0  0  0
  -26.1969  -33.0661  -25.2422 C   0  0  0  0  0  0  0  0  0  0  0  0
  -24.9145  -33.8361  -25.4139 C   0  0  0  0  0  0  0  0  0  0  0  0
  -25.8338  -33.6456  -26.5861 C   0  0  0  0  0  0  0  0  0  0  0  0
  1  2  2  0
  2  3  1  0
  3  4  1  0
  4  5  1  0
  5  6  1  0
  6  7  1  0
  7  8  1  0
  8  9  1  0
  9 10  1  0
 10 11  2  0
 11 12  1  0
 12 13  2  0
 13 14  1  0
 14 15  2  0
  2 16  1  0
 16 17  1  0
 17 18  2  0
 18 19  1  0
 19 20  1  0
 20 21  1  0
 21 22  1  0
 22 23  1  0
 15  6  1  0
 20 16  2  0
 23 21  1  0
 15 10  1  0
M  END
>  <HIPPO Pose ID>  (437) 
144839

>  <fragmenstein_outcome>  (437) 
acceptable

>  <energy_score>  (437) 
-33.64364

>  <distance_score>  (437) 
0.98979

>  <fragmenstein_mode>  (437) 
expansion

>  <HIPPO Compound ID>  (437) 
30614

>  <name>  (437) 
IUBFJAGSSWYSJX-UHFFFAOYSA-N

>  <ref_pdb>  (437) 
z0165a

>  <ref_mols>  (437) 
z0165a,z0628a

>  <csv_name>  (437) 
RdRp_knitwork_green_site_rna_tunnel_pure_split4000_batch007.csv

>  <fragmenstein_runtime>  (437) 
4.343857

>  <tags>  (437) 
['Fragmenstein placed']

>  <original ID>  (437) 
IUBFJAGSSWYSJX-UHFFFAOYSA-N

>  <fragmenstein_error>  (437) 
None

>  <original SMILES>  (437) 
O=C(OCCN1CCCc2ccccc21)c1ncoc1C1CC1

>  <inchikey>  (437) 
IUBFJAGSSWYSJX-UHFFFAOYSA-N

>  <SLURM_JOB_NAME>  (437) 
BulkDock.place:Flavi_NS5_RdRp:RdRp_knitwork_green_site_rna_tunnel_pure_split4000_batch007

>  <scratch_subdir>  (437) 
/opt/xchem-fragalysis-2/maxwin/BulkDock/SCRATCH/217078/C30614-P3

>  <alias>  (437) 
None

>  <SLURM_JOB_ID>  (437) 
217078

>  <exports>  (437) 
['/opt/xchem-fragalysis-2/maxwin/BulkDock/OUTPUTS/RdRp_knitwork_green_site_rna_tunnel_pure_split4000_batch007_217078.sdf']

$$$$
144856
     RDKit          3D

 23 26  0  0  0  0  0  0  0  0999 V2000
  -25.7674  -30.9146  -22.8624 O   0  0  0  0  0  0  0  0  0  0  0  0
  -26.1093  -31.5801  -21.8854 C   0  0  0  0  0  0  0  0  0  0  0  0
  -26.9016  -30.9958  -20.9350 O   0  0  0  0  0  0  0  0  0  0  0  0
  -27.7241  -31.7411  -20.0009 C   0  0  0  0  0  0  0  0  0  0  0  0
  -28.9727  -30.8960  -19.6448 C   0  0  0  0  0  0  0  0  0  0  0  0
  -28.8337  -30.2040  -18.3465 N   0  0  0  0  0  0  0  0  0  0  0  0
  -29.2672  -30.9974  -17.1870 C   0  0  0  0  0  0  0  0  0  0  0  0
  -28.8979  -30.3482  -15.8653 C   0  0  0  0  0  0  0  0  0  0  0  0
  -27.3938  -30.1364  -15.8368 C   0  0  0  0  0  0  0  0  0  0  0  0
  -26.9867  -29.3057  -17.0228 C   0  0  0  0  0  0  0  0  0  0  0  0
  -25.8687  -28.4715  -16.9285 C   0  0  0  0  0  0  0  0  0  0  0  0
  -25.5332  -27.6155  -17.9783 C   0  0  0  0  0  0  0  0  0  0  0  0
  -26.2717  -27.6264  -19.1468 C   0  0  0  0  0  0  0  0  0  0  0  0
  -27.3576  -28.4884  -19.2572 C   0  0  0  0  0  0  0  0  0  0  0  0
  -27.7296  -29.3555  -18.2141 C   0  0  0  0  0  0  0  0  0  0  0  0
  -25.7170  -32.9809  -21.7151 C   0  0  0  0  0  0  0  0  0  0  0  0
  -25.7324  -33.6707  -20.5082 N   0  0  0  0  0  0  0  0  0  0  0  0
  -25.2852  -34.8645  -20.8201 C   0  0  0  0  0  0  0  0  0  0  0  0
  -24.9886  -35.0437  -22.1307 O   0  0  0  0  0  0  0  0  0  0  0  0
  -25.2629  -33.8349  -22.7082 C   0  0  0  0  0  0  0  0  0  0  0  0
  -25.0895  -33.5385  -24.2253 C   0  0  0  0  0  0  0  0  0  0  0  0
  -24.6740  -34.6607  -25.1407 C   0  0  0  0  0  0  0  0  0  0  0  0
  -26.0760  -34.1277  -25.1990 C   0  0  0  0  0  0  0  0  0  0  0  0
  1  2  2  0
  2  3  1  0
  3  4  1  0
  4  5  1  0
  5  6  1  0
  6  7  1  0
  7  8  1  0
  8  9  1  0
  9 10  1  0
 10 11  2  0
 11 12  1  0
 12 13  2  0
 13 14  1  0
 14 15  2  0
  2 16  1  0
 16 17  1  0
 17 18  2  0
 18 19  1  0
 19 20  1  0
 20 21  1  0
 21 22  1  0
 22 23  1  0
 15  6  1  0
 20 16  2  0
 23 21  1  0
 15 10  1  0
M  END
>  <HIPPO Pose ID>  (438) 
144856

>  <fragmenstein_outcome>  (438) 
acceptable

>  <energy_score>  (438) 
-27.441267

>  <distance_score>  (438) 
0.920814

>  <fragmenstein_mode>  (438) 
expansion

>  <HIPPO Compound ID>  (438) 
30614

>  <name>  (438) 
IUBFJAGSSWYSJX-UHFFFAOYSA-N

>  <ref_pdb>  (438) 
z0628a

>  <ref_mols>  (438) 
z0165a,z0628a

>  <csv_name>  (438) 
RdRp_knitwork_green_site_rna_tunnel_pure_split4000_batch007.csv

>  <fragmenstein_runtime>  (438) 
4.858049

>  <tags>  (438) 
['Fragmenstein placed']

>  <original ID>  (438) 
IUBFJAGSSWYSJX-UHFFFAOYSA-N

>  <fragmenstein_error>  (438) 
None

>  <original SMILES>  (438) 
O=C(OCCN1CCCc2ccccc21)c1ncoc1C1CC1

>  <inchikey>  (438) 
IUBFJAGSSWYSJX-UHFFFAOYSA-N

>  <SLURM_JOB_NAME>  (438) 
BulkDock.place:Flavi_NS5_RdRp:RdRp_knitwork_green_site_rna_tunnel_pure_split4000_batch007

>  <scratch_subdir>  (438) 
/opt/xchem-fragalysis-2/maxwin/BulkDock/SCRATCH/217078/C30614-P150

>  <alias>  (438) 
None

>  <SLURM_JOB_ID>  (438) 
217078

>  <exports>  (438) 
['/opt/xchem-fragalysis-2/maxwin/BulkDock/OUTPUTS/RdRp_knitwork_green_site_rna_tunnel_pure_split4000_batch007_217078.sdf']

$$$$
144937
     RDKit          3D

 23 25  0  0  0  0  0  0  0  0999 V2000
  -25.7907  -32.2757  -20.3265 O   0  0  0  0  0  0  0  0  0  0  0  0
  -26.6173  -31.5749  -20.8976 C   0  0  0  0  0  0  0  0  0  0  0  0
  -26.7456  -30.2806  -20.5340 O   0  0  0  0  0  0  0  0  0  0  0  0
  -27.6947  -29.3143  -20.9911 C   0  0  0  0  0  0  0  0  0  0  0  0
  -28.6700  -28.8250  -19.8991 C   0  0  0  0  0  0  0  0  0  0  0  0
  -28.4277  -29.2170  -18.5009 N   0  0  0  0  0  0  0  0  0  0  0  0
  -29.4764  -29.9277  -17.7486 C   0  0  0  0  0  0  0  0  0  0  0  0
  -29.3467  -29.7475  -16.2473 C   0  0  0  0  0  0  0  0  0  0  0  0
  -27.9778  -30.2468  -15.8238 C   0  0  0  0  0  0  0  0  0  0  0  0
  -26.9344  -29.4883  -16.5939 C   0  0  0  0  0  0  0  0  0  0  0  0
  -25.6843  -29.3070  -16.0020 C   0  0  0  0  0  0  0  0  0  0  0  0
  -24.7364  -28.5200  -16.6302 C   0  0  0  0  0  0  0  0  0  0  0  0
  -25.0190  -27.9120  -17.8452 C   0  0  0  0  0  0  0  0  0  0  0  0
  -26.2472  -28.1297  -18.4519 C   0  0  0  0  0  0  0  0  0  0  0  0
  -27.2188  -28.9551  -17.8703 C   0  0  0  0  0  0  0  0  0  0  0  0
  -27.4637  -32.0491  -21.9745 C   0  0  0  0  0  0  0  0  0  0  0  0
  -26.8309  -32.6309  -23.4654 S   0  0  0  0  0  0  0  0  0  0  0  0
  -28.3499  -33.2309  -23.8967 C   0  0  0  0  0  0  0  0  0  0  0  0
  -29.3137  -32.9184  -23.0726 N   0  0  0  0  0  0  0  0  0  0  0  0
  -28.8240  -32.2761  -21.9438 C   0  0  0  0  0  0  0  0  0  0  0  0
  -29.7165  -31.9086  -20.8065 C   0  0  0  0  0  0  0  0  0  0  0  0
  -28.9585  -31.6421  -19.7292 F   0  0  0  0  0  0  0  0  0  0  0  0
  -30.5585  -32.8944  -20.4124 F   0  0  0  0  0  0  0  0  0  0  0  0
  1  2  2  0
  2  3  1  0
  3  4  1  0
  4  5  1  0
  5  6  1  0
  6  7  1  0
  7  8  1  0
  8  9  1  0
  9 10  1  0
 10 11  2  0
 11 12  1  0
 12 13  2  0
 13 14  1  0
 14 15  2  0
  2 16  1  0
 16 17  1  0
 17 18  1  0
 18 19  2  0
 19 20  1  0
 20 21  1  0
 21 22  1  0
 21 23  1  0
 15  6  1  0
 20 16  2  0
 15 10  1  0
M  END
>  <HIPPO Pose ID>  (439) 
144937

>  <fragmenstein_outcome>  (439) 
acceptable

>  <energy_score>  (439) 
-25.543292

>  <distance_score>  (439) 
0.989699

>  <fragmenstein_mode>  (439) 
expansion

>  <HIPPO Compound ID>  (439) 
31711

>  <name>  (439) 
DHHKYMDAUHTCIZ-UHFFFAOYSA-N

>  <ref_pdb>  (439) 
z0165a

>  <ref_mols>  (439) 
z0165a,z0628a

>  <csv_name>  (439) 
RdRp_knitwork_green_site_rna_tunnel_pure_split4000_batch007.csv

>  <fragmenstein_runtime>  (439) 
2.685592

>  <tags>  (439) 
['Fragmenstein placed']

>  <original ID>  (439) 
DHHKYMDAUHTCIZ-UHFFFAOYSA-N

>  <fragmenstein_error>  (439) 
None

>  <original SMILES>  (439) 
O=C(OCCN1CCCc2ccccc21)c1scnc1C(F)F

>  <inchikey>  (439) 
DHHKYMDAUHTCIZ-UHFFFAOYSA-N

>  <SLURM_JOB_NAME>  (439) 
BulkDock.place:Flavi_NS5_RdRp:RdRp_knitwork_green_site_rna_tunnel_pure_split4000_batch007

>  <scratch_subdir>  (439) 
/opt/xchem-fragalysis-2/maxwin/BulkDock/SCRATCH/217078/C31711-P3

>  <alias>  (439) 
None

>  <SLURM_JOB_ID>  (439) 
217078

>  <exports>  (439) 
['/opt/xchem-fragalysis-2/maxwin/BulkDock/OUTPUTS/RdRp_knitwork_green_site_rna_tunnel_pure_split4000_batch007_217078.sdf']

$$$$
144956
     RDKit          3D

 22 24  0  0  0  0  0  0  0  0999 V2000
  -27.2983  -30.3539  -23.3084 O   0  0  0  0  0  0  0  0  0  0  0  0
  -27.4437  -31.5186  -22.9813 C   0  0  0  0  0  0  0  0  0  0  0  0
  -27.7219  -31.9571  -21.7316 O   0  0  0  0  0  0  0  0  0  0  0  0
  -27.4421  -30.9998  -20.6913 C   0  0  0  0  0  0  0  0  0  0  0  0
  -28.5878  -30.0103  -20.4015 C   0  0  0  0  0  0  0  0  0  0  0  0
  -28.6347  -29.6062  -18.9705 N   0  0  0  0  0  0  0  0  0  0  0  0
  -29.5440  -30.3988  -18.1334 C   0  0  0  0  0  0  0  0  0  0  0  0
  -29.3835  -30.1298  -16.6439 C   0  0  0  0  0  0  0  0  0  0  0  0
  -27.9348  -30.3404  -16.2383 C   0  0  0  0  0  0  0  0  0  0  0  0
  -27.0496  -29.4870  -17.1024 C   0  0  0  0  0  0  0  0  0  0  0  0
  -25.8134  -29.0703  -16.5964 C   0  0  0  0  0  0  0  0  0  0  0  0
  -25.0075  -28.2193  -17.3423 C   0  0  0  0  0  0  0  0  0  0  0  0
  -25.4184  -27.7813  -18.5936 C   0  0  0  0  0  0  0  0  0  0  0  0
  -26.6256  -28.2384  -19.1175 C   0  0  0  0  0  0  0  0  0  0  0  0
  -27.4484  -29.1263  -18.4050 C   0  0  0  0  0  0  0  0  0  0  0  0
  -27.2323  -32.6736  -23.8956 C   0  0  0  0  0  0  0  0  0  0  0  0
  -26.1716  -32.6083  -24.7272 C   0  0  0  0  0  0  0  0  0  0  0  0
  -25.7765  -33.6888  -25.6922 C   0  0  0  0  0  0  0  0  0  0  0  0
  -26.8189  -33.9490  -26.7818 C   0  0  0  0  0  0  0  0  0  0  0  0
  -28.1684  -33.8174  -26.3121 O   0  0  0  0  0  0  0  0  0  0  0  0
  -28.4147  -34.6045  -25.1402 C   0  0  0  0  0  0  0  0  0  0  0  0
  -28.2646  -33.7655  -23.8617 C   0  0  0  0  0  0  0  0  0  0  0  0
  1  2  2  0
  2  3  1  0
  3  4  1  0
  4  5  1  0
  5  6  1  0
  6  7  1  0
  7  8  1  0
  8  9  1  0
  9 10  1  0
 10 11  2  0
 11 12  1  0
 12 13  2  0
 13 14  1  0
 14 15  2  0
  2 16  1  0
 16 17  2  0
 17 18  1  0
 18 19  1  0
 19 20  1  0
 20 21  1  0
 21 22  1  0
 15  6  1  0
 22 16  1  0
 15 10  1  0
M  END
>  <HIPPO Pose ID>  (440) 
144956

>  <fragmenstein_outcome>  (440) 
acceptable

>  <energy_score>  (440) 
-147.689283

>  <distance_score>  (440) 
0.974245

>  <fragmenstein_mode>  (440) 
expansion

>  <HIPPO Compound ID>  (440) 
31889

>  <name>  (440) 
YWKYZWDLUNDJHC-UHFFFAOYSA-N

>  <ref_pdb>  (440) 
z0165a

>  <ref_mols>  (440) 
z0165a,z0628a

>  <csv_name>  (440) 
RdRp_knitwork_green_site_rna_tunnel_pure_split4000_batch007.csv

>  <fragmenstein_runtime>  (440) 
3.470255

>  <tags>  (440) 
['Fragmenstein placed']

>  <original ID>  (440) 
YWKYZWDLUNDJHC-UHFFFAOYSA-N

>  <fragmenstein_error>  (440) 
None

>  <original SMILES>  (440) 
O=C(OCCN1CCCc2ccccc21)C1=CCCOCC1

>  <inchikey>  (440) 
YWKYZWDLUNDJHC-UHFFFAOYSA-N

>  <SLURM_JOB_NAME>  (440) 
BulkDock.place:Flavi_NS5_RdRp:RdRp_knitwork_green_site_rna_tunnel_pure_split4000_batch007

>  <scratch_subdir>  (440) 
/opt/xchem-fragalysis-2/maxwin/BulkDock/SCRATCH/217078/C31889-P3

>  <alias>  (440) 
None

>  <SLURM_JOB_ID>  (440) 
217078

>  <exports>  (440) 
['/opt/xchem-fragalysis-2/maxwin/BulkDock/OUTPUTS/RdRp_knitwork_green_site_rna_tunnel_pure_split4000_batch007_217078.sdf']

$$$$
145556
     RDKit          3D

 21 22  0  0  0  0  0  0  0  0999 V2000
  -28.0127  -29.2141  -22.3998 O   0  0  0  0  0  0  0  0  0  0  0  0
  -27.7060  -30.1281  -21.6399 C   0  0  0  0  0  0  0  0  0  0  0  0
  -28.5615  -30.5013  -20.4722 C   0  0  0  0  0  0  0  0  0  0  0  0
  -29.2164  -29.2974  -19.8255 C   0  0  0  0  0  0  0  0  0  0  0  0
  -29.7106  -29.6757  -18.1086 S   0  0  0  0  0  0  0  0  0  0  0  0
  -28.1146  -29.7019  -17.3250 C   0  0  0  0  0  0  0  0  0  0  0  0
  -28.0473  -29.8963  -15.9607 C   0  0  0  0  0  0  0  0  0  0  0  0
  -26.7987  -30.0968  -15.3898 C   0  0  0  0  0  0  0  0  0  0  0  0
  -25.6624  -30.0742  -16.1741 C   0  0  0  0  0  0  0  0  0  0  0  0
  -25.8107  -29.8228  -17.5150 C   0  0  0  0  0  0  0  0  0  0  0  0
  -27.0092  -29.6323  -18.1014 N   0  0  0  0  0  0  0  0  0  0  0  0
  -26.6040  -30.8872  -21.8970 O   0  0  0  0  0  0  0  0  0  0  0  0
  -26.0152  -31.7958  -20.9414 C   0  0  0  0  0  0  0  0  0  0  0  0
  -24.8926  -32.6036  -21.5852 C   0  0  0  0  0  0  0  0  0  0  0  0
  -23.7866  -31.7322  -22.1729 C   0  0  0  0  0  0  0  0  0  0  0  0
  -22.9379  -32.4714  -23.0886 N   0  0  0  0  0  0  0  0  0  0  0  0
  -21.5307  -32.6792  -22.8562 C   0  0  0  0  0  0  0  0  0  0  0  0
  -20.9895  -32.9961  -24.2384 C   0  0  0  0  0  0  0  0  0  0  0  0
  -22.1702  -33.6192  -24.9712 C   0  0  0  0  0  0  0  0  0  0  0  0
  -23.3544  -32.9582  -24.3155 C   0  0  0  0  0  0  0  0  0  0  0  0
  -24.4831  -32.9063  -24.7790 O   0  0  0  0  0  0  0  0  0  0  0  0
  1  2  2  0
  2  3  1  0
  3  4  1  0
  4  5  1  0
  5  6  1  0
  6  7  2  0
  7  8  1  0
  8  9  2  0
  9 10  1  0
 10 11  2  0
  2 12  1  0
 12 13  1  0
 13 14  1  0
 14 15  1  0
 15 16  1  0
 16 17  1  0
 17 18  1  0
 18 19  1  0
 19 20  1  0
 20 21  2  0
 11  6  1  0
 20 16  1  0
M  END
>  <HIPPO Pose ID>  (441) 
145556

>  <fragmenstein_outcome>  (441) 
acceptable

>  <energy_score>  (441) 
-28.216491

>  <distance_score>  (441) 
0.961307

>  <fragmenstein_mode>  (441) 
expansion

>  <HIPPO Compound ID>  (441) 
41167

>  <name>  (441) 
ZOWGPFZACUAHSJ-UHFFFAOYSA-N

>  <ref_pdb>  (441) 
z1018a

>  <ref_mols>  (441) 
z0637a,z1018a

>  <csv_name>  (441) 
RdRp_knitwork_green_site_rna_tunnel_pure_split4000_batch011.csv

>  <fragmenstein_runtime>  (441) 
7.485722

>  <tags>  (441) 
['Fragmenstein placed']

>  <original ID>  (441) 
ZOWGPFZACUAHSJ-UHFFFAOYSA-N

>  <fragmenstein_error>  (441) 
None

>  <original SMILES>  (441) 
O=C(CCSc1ccccn1)OCCCN1CCCC1=O

>  <inchikey>  (441) 
ZOWGPFZACUAHSJ-UHFFFAOYSA-N

>  <SLURM_JOB_NAME>  (441) 
BulkDock.place:Flavi_NS5_RdRp:RdRp_knitwork_green_site_rna_tunnel_pure_split4000_batch011

>  <scratch_subdir>  (441) 
/opt/xchem-fragalysis-2/maxwin/BulkDock/SCRATCH/217082/C41167-P206

>  <alias>  (441) 
None

>  <SLURM_JOB_ID>  (441) 
217082

>  <exports>  (441) 
['/opt/xchem-fragalysis-2/maxwin/BulkDock/OUTPUTS/RdRp_knitwork_green_site_rna_tunnel_pure_split4000_batch011_217082.sdf']

$$$$
145602
     RDKit          3D

 18 20  0  0  0  0  0  0  0  0999 V2000
  -25.2743  -32.4348  -18.6369 O   0  0  0  0  0  0  0  0  0  0  0  0
  -24.2994  -31.3945  -18.8258 S   0  0  0  0  0  0  0  0  0  0  0  0
  -23.9275  -30.9000  -20.1306 O   0  0  0  0  0  0  0  0  0  0  0  0
  -24.7165  -30.0621  -17.8548 N   0  0  0  0  0  0  0  0  0  0  0  0
  -26.1166  -29.9561  -17.6817 C   0  0  0  0  0  0  0  0  0  0  0  0
  -26.6542  -29.8672  -16.4162 C   0  0  0  0  0  0  0  0  0  0  0  0
  -28.0353  -29.7443  -16.3109 C   0  0  0  0  0  0  0  0  0  0  0  0
  -28.8105  -29.7902  -17.4686 C   0  0  0  0  0  0  0  0  0  0  0  0
  -28.1833  -29.9157  -18.7096 C   0  0  0  0  0  0  0  0  0  0  0  0
  -28.9223  -30.2069  -19.9875 C   0  0  0  0  0  0  0  0  0  0  0  0
  -30.3245  -29.7618  -20.2697 C   0  0  0  0  0  0  0  0  0  0  0  0
  -29.1763  -29.0740  -20.9495 C   0  0  0  0  0  0  0  0  0  0  0  0
  -26.8329  -29.8987  -18.8087 N   0  0  0  0  0  0  0  0  0  0  0  0
  -22.8668  -32.1086  -18.1289 C   0  0  0  0  0  0  0  0  0  0  0  0
  -22.3337  -32.0682  -16.8617 C   0  0  0  0  0  0  0  0  0  0  0  0
  -21.2071  -32.8452  -16.6571 N   0  0  0  0  0  0  0  0  0  0  0  0
  -20.9553  -33.5088  -17.7660 C   0  0  0  0  0  0  0  0  0  0  0  0
  -21.9759  -33.1921  -19.1031 S   0  0  0  0  0  0  0  0  0  0  0  0
  1  2  2  0
  2  3  2  0
  2  4  1  0
  4  5  1  0
  5  6  2  0
  6  7  1  0
  7  8  2  0
  8  9  1  0
  9 10  1  0
 10 11  1  0
 11 12  1  0
  9 13  2  0
  2 14  1  0
 14 15  2  0
 15 16  1  0
 16 17  2  0
 17 18  1  0
 13  5  1  0
 18 14  1  0
 12 10  1  0
M  END
>  <HIPPO Pose ID>  (442) 
145602

>  <fragmenstein_outcome>  (442) 
acceptable

>  <energy_score>  (442) 
-82.671789

>  <distance_score>  (442) 
0.844811

>  <fragmenstein_mode>  (442) 
expansion

>  <HIPPO Compound ID>  (442) 
16739

>  <name>  (442) 
GJCNVLMKMHKUOH-UHFFFAOYSA-N

>  <ref_pdb>  (442) 
z0637a

>  <ref_mols>  (442) 
z0496a,z0637a

>  <csv_name>  (442) 
RdRp_knitwork_green_site_rna_tunnel_pure_split4000_batch015.csv

>  <fragmenstein_runtime>  (442) 
8.904216

>  <tags>  (442) 
['Fragmenstein placed']

>  <original ID>  (442) 
GJCNVLMKMHKUOH-UHFFFAOYSA-N

>  <fragmenstein_error>  (442) 
None

>  <original SMILES>  (442) 
O=S(=O)(Nc1cccc(C2CC2)n1)c1cncs1

>  <inchikey>  (442) 
GJCNVLMKMHKUOH-UHFFFAOYSA-N

>  <SLURM_JOB_NAME>  (442) 
BulkDock.place:Flavi_NS5_RdRp:RdRp_knitwork_green_site_rna_tunnel_pure_split4000_batch015

>  <scratch_subdir>  (442) 
/opt/xchem-fragalysis-2/maxwin/BulkDock/SCRATCH/217086/C16739-P151

>  <alias>  (442) 
None

>  <SLURM_JOB_ID>  (442) 
217086

>  <exports>  (442) 
['/opt/xchem-fragalysis-2/maxwin/BulkDock/OUTPUTS/RdRp_knitwork_green_site_rna_tunnel_pure_split4000_batch015_217086.sdf']

$$$$
145788
     RDKit          3D

 17 19  0  0  0  0  0  0  0  0999 V2000
  -24.2496  -31.1174  -20.3214 C   0  0  0  0  0  0  0  0  0  0  0  0
  -24.4005  -31.5898  -18.8734 C   0  0  2  0  0  0  0  0  0  0  0  0
  -24.7994  -30.4992  -17.9792 N   0  0  0  0  0  0  0  0  0  0  0  0
  -26.1517  -30.2291  -17.8537 C   0  0  0  0  0  0  0  0  0  0  0  0
  -26.6354  -29.8044  -16.6281 C   0  0  0  0  0  0  0  0  0  0  0  0
  -28.0005  -29.5815  -16.4721 C   0  0  0  0  0  0  0  0  0  0  0  0
  -28.8394  -29.7433  -17.5648 C   0  0  0  0  0  0  0  0  0  0  0  0
  -28.2931  -30.1425  -18.7815 C   0  0  0  0  0  0  0  0  0  0  0  0
  -29.0998  -30.3575  -20.0307 C   0  0  0  0  0  0  0  0  0  0  0  0
  -30.4595  -29.7833  -20.2790 C   0  0  0  0  0  0  0  0  0  0  0  0
  -29.2697  -29.1738  -20.9578 C   0  0  0  0  0  0  0  0  0  0  0  0
  -26.9661  -30.3957  -18.9042 N   0  0  0  0  0  0  0  0  0  0  0  0
  -23.1490  -32.2657  -18.3574 C   0  0  0  0  0  0  0  0  0  0  0  0
  -22.5687  -32.1617  -17.1037 C   0  0  0  0  0  0  0  0  0  0  0  0
  -21.4358  -32.9237  -16.8827 N   0  0  0  0  0  0  0  0  0  0  0  0
  -21.1996  -33.6348  -17.9620 C   0  0  0  0  0  0  0  0  0  0  0  0
  -22.2481  -33.3899  -19.2906 S   0  0  0  0  0  0  0  0  0  0  0  0
  2  1  1  6
  2  3  1  0
  3  4  1  0
  4  5  2  0
  5  6  1  0
  6  7  2  0
  7  8  1  0
  8  9  1  0
  9 10  1  0
 10 11  1  0
  8 12  2  0
  2 13  1  0
 13 14  2  0
 14 15  1  0
 15 16  2  0
 16 17  1  0
 12  4  1  0
 17 13  1  0
 11  9  1  0
M  END
>  <HIPPO Pose ID>  (443) 
145788

>  <fragmenstein_outcome>  (443) 
acceptable

>  <energy_score>  (443) 
-103.787507

>  <distance_score>  (443) 
0.845591

>  <fragmenstein_mode>  (443) 
expansion

>  <HIPPO Compound ID>  (443) 
17030

>  <name>  (443) 
UNNLPLBFPTWDNB-VIFPVBQESA-N

>  <ref_pdb>  (443) 
z0637a

>  <ref_mols>  (443) 
z0496a,z0637a

>  <csv_name>  (443) 
RdRp_knitwork_green_site_rna_tunnel_pure_split4000_batch015.csv

>  <fragmenstein_runtime>  (443) 
9.126285

>  <tags>  (443) 
['Fragmenstein placed']

>  <original ID>  (443) 
UNNLPLBFPTWDNB-VIFPVBQESA-N

>  <fragmenstein_error>  (443) 
None

>  <original SMILES>  (443) 
C[C@H](Nc1cccc(C2CC2)n1)c1cncs1

>  <inchikey>  (443) 
UNNLPLBFPTWDNB-VIFPVBQESA-N

>  <SLURM_JOB_NAME>  (443) 
BulkDock.place:Flavi_NS5_RdRp:RdRp_knitwork_green_site_rna_tunnel_pure_split4000_batch015

>  <scratch_subdir>  (443) 
/opt/xchem-fragalysis-2/maxwin/BulkDock/SCRATCH/217086/C17030-P151

>  <alias>  (443) 
None

>  <SLURM_JOB_ID>  (443) 
217086

>  <exports>  (443) 
['/opt/xchem-fragalysis-2/maxwin/BulkDock/OUTPUTS/RdRp_knitwork_green_site_rna_tunnel_pure_split4000_batch015_217086.sdf']

$$$$
145981
     RDKit          3D

 23 24  0  0  0  0  0  0  0  0999 V2000
  -22.1087  -37.7601  -26.5654 C   0  0  0  0  0  0  0  0  0  0  0  0
  -21.4941  -36.4085  -26.8745 C   0  0  0  0  0  0  0  0  0  0  0  0
  -22.1217  -35.4290  -26.0417 O   0  0  0  0  0  0  0  0  0  0  0  0
  -21.5172  -34.2150  -26.0012 C   0  0  0  0  0  0  0  0  0  0  0  0
  -20.5410  -33.8414  -26.6304 O   0  0  0  0  0  0  0  0  0  0  0  0
  -22.1905  -33.4129  -24.9580 C   0  0  0  0  0  0  0  0  0  0  0  0
  -21.4515  -33.0004  -23.8538 C   0  0  0  0  0  0  0  0  0  0  0  0
  -22.1334  -32.4290  -22.7855 C   0  0  0  0  0  0  0  0  0  0  0  0
  -23.5032  -32.2226  -22.8964 C   0  0  0  0  0  0  0  0  0  0  0  0
  -24.2232  -31.7372  -21.8164 N   0  0  0  0  0  0  0  0  0  0  0  0
  -25.6658  -31.1907  -21.7368 C   0  0  0  0  0  0  0  0  0  0  0  0
  -26.4448  -30.9923  -22.5789 O   0  0  0  0  0  0  0  0  0  0  0  0
  -26.0045  -31.0241  -20.2686 C   0  0  0  0  0  0  0  0  0  0  0  0
  -27.4797  -30.6223  -20.1103 C   0  0  0  0  0  0  0  0  0  0  0  0
  -27.9729  -30.9321  -18.7150 C   0  0  2  0  0  0  0  0  0  0  0  0
  -29.3905  -30.7448  -18.5275 N   0  0  0  0  0  0  0  0  0  0  0  0
  -29.6314  -30.1209  -17.3222 C   0  0  0  0  0  0  0  0  0  0  0  0
  -30.6901  -30.0958  -16.7245 O   0  0  0  0  0  0  0  0  0  0  0  0
  -28.4789  -29.5741  -16.8809 N   0  0  0  0  0  0  0  0  0  0  0  0
  -27.4394  -29.9899  -17.6436 C   0  0  0  0  0  0  0  0  0  0  0  0
  -26.2714  -29.7099  -17.4420 O   0  0  0  0  0  0  0  0  0  0  0  0
  -24.1389  -32.5798  -24.0847 C   0  0  0  0  0  0  0  0  0  0  0  0
  -23.5190  -33.2068  -25.1102 N   0  0  0  0  0  0  0  0  0  0  0  0
  1  2  1  0
  2  3  1  0
  3  4  1  0
  4  5  2  0
  4  6  1  0
  6  7  2  0
  7  8  1  0
  8  9  2  0
  9 10  1  0
 10 11  1  0
 11 12  2  0
 11 13  1  0
 13 14  1  0
 15 14  1  6
 15 16  1  0
 16 17  1  0
 17 18  2  0
 17 19  1  0
 19 20  1  0
 20 21  2  0
  9 22  1  0
 22 23  2  0
 23  6  1  0
 20 15  1  0
M  END
>  <HIPPO Pose ID>  (444) 
145981

>  <fragmenstein_outcome>  (444) 
acceptable

>  <energy_score>  (444) 
-33.597938

>  <distance_score>  (444) 
0.94443

>  <fragmenstein_mode>  (444) 
expansion

>  <HIPPO Compound ID>  (444) 
48268

>  <name>  (444) 
DLLAFRWXIUPLMR-VIFPVBQESA-N

>  <ref_pdb>  (444) 
z0411a

>  <ref_mols>  (444) 
z0411a,z0519a

>  <csv_name>  (444) 
RdRp_knitwork_green_site_rna_tunnel_pure_split4000_batch011.csv

>  <fragmenstein_runtime>  (444) 
4.13851

>  <tags>  (444) 
['Fragmenstein placed']

>  <original ID>  (444) 
DLLAFRWXIUPLMR-VIFPVBQESA-N

>  <fragmenstein_error>  (444) 
None

>  <original SMILES>  (444) 
CCOC(=O)c1ccc(NC(=O)CC[C@@H]2NC(=O)NC2=O)cn1

>  <inchikey>  (444) 
DLLAFRWXIUPLMR-VIFPVBQESA-N

>  <SLURM_JOB_NAME>  (444) 
BulkDock.place:Flavi_NS5_RdRp:RdRp_knitwork_green_site_rna_tunnel_pure_split4000_batch011

>  <scratch_subdir>  (444) 
/opt/xchem-fragalysis-2/maxwin/BulkDock/SCRATCH/217082/C48268-P123

>  <alias>  (444) 
None

>  <SLURM_JOB_ID>  (444) 
217082

>  <exports>  (444) 
['/opt/xchem-fragalysis-2/maxwin/BulkDock/OUTPUTS/RdRp_knitwork_green_site_rna_tunnel_pure_split4000_batch011_217082.sdf']

$$$$
146042
     RDKit          3D

 20 22  0  0  0  0  0  0  0  0999 V2000
  -28.1745  -28.4370  -20.2427 C   0  0  0  0  0  0  0  0  0  0  0  0
  -26.9906  -29.2824  -20.0623 N   0  0  0  0  0  0  0  0  0  0  0  0
  -26.5527  -29.6937  -21.4195 C   0  0  0  0  0  0  0  0  0  0  0  0
  -25.3692  -30.6779  -21.5887 C   0  0  0  0  0  0  0  0  0  0  0  0
  -24.9503  -30.8679  -23.0417 C   0  0  2  0  0  0  0  0  0  0  0  0
  -24.7955  -29.6048  -23.7020 N   0  0  0  0  0  0  0  0  0  0  0  0
  -25.8220  -29.3625  -24.5678 C   0  0  0  0  0  0  0  0  0  0  0  0
  -26.0040  -28.3565  -25.2221 O   0  0  0  0  0  0  0  0  0  0  0  0
  -26.6329  -30.4335  -24.5884 N   0  0  0  0  0  0  0  0  0  0  0  0
  -26.1149  -31.4428  -23.8431 C   0  0  0  0  0  0  0  0  0  0  0  0
  -26.5584  -32.5780  -23.7762 O   0  0  0  0  0  0  0  0  0  0  0  0
  -27.3479  -30.3490  -19.1195 C   0  0  0  0  0  0  0  0  0  0  0  0
  -27.9345  -29.9494  -17.7682 C   0  0  0  0  0  0  0  0  0  0  0  0
  -29.2875  -30.0987  -17.4548 C   0  0  0  0  0  0  0  0  0  0  0  0
  -29.6993  -30.0944  -16.1340 C   0  0  0  0  0  0  0  0  0  0  0  0
  -28.7505  -29.9051  -15.1498 C   0  0  0  0  0  0  0  0  0  0  0  0
  -27.4633  -29.6291  -15.4013 N   0  0  0  0  0  0  0  0  0  0  0  0
  -27.1044  -29.6427  -16.7035 C   0  0  0  0  0  0  0  0  0  0  0  0
  -27.8654  -31.5559  -19.7212 C   0  0  0  0  0  0  0  0  0  0  0  0
  -26.5214  -31.6278  -18.9579 C   0  0  0  0  0  0  0  0  0  0  0  0
  1  2  1  0
  2  3  1  0
  3  4  1  0
  5  4  1  1
  5  6  1  0
  6  7  1  0
  7  8  2  0
  7  9  1  0
  9 10  1  0
 10 11  2  0
  2 12  1  0
 12 13  1  0
 13 14  2  0
 14 15  1  0
 15 16  2  0
 16 17  1  0
 17 18  2  0
 12 19  1  0
 19 20  1  0
 10  5  1  0
 20 12  1  0
 18 13  1  0
M  END
>  <HIPPO Pose ID>  (445) 
146042

>  <fragmenstein_outcome>  (445) 
acceptable

>  <energy_score>  (445) 
14.639002

>  <distance_score>  (445) 
1.295487

>  <fragmenstein_mode>  (445) 
expansion

>  <HIPPO Compound ID>  (445) 
48666

>  <name>  (445) 
KTAYAZGBEPPMBR-NSHDSACASA-N

>  <ref_pdb>  (445) 
z0519a

>  <ref_mols>  (445) 
z0411a,z0519a,z0637a

>  <csv_name>  (445) 
RdRp_knitwork_green_site_rna_tunnel_pure_split4000_batch011.csv

>  <fragmenstein_runtime>  (445) 
2.191519

>  <tags>  (445) 
['Fragmenstein placed']

>  <original ID>  (445) 
KTAYAZGBEPPMBR-NSHDSACASA-N

>  <fragmenstein_error>  (445) 
None

>  <original SMILES>  (445) 
CN(CC[C@@H]1NC(=O)NC1=O)C1(c2cccnc2)CC1

>  <inchikey>  (445) 
KTAYAZGBEPPMBR-NSHDSACASA-N

>  <SLURM_JOB_NAME>  (445) 
BulkDock.place:Flavi_NS5_RdRp:RdRp_knitwork_green_site_rna_tunnel_pure_split4000_batch011

>  <scratch_subdir>  (445) 
/opt/xchem-fragalysis-2/maxwin/BulkDock/SCRATCH/217082/C48666-P140

>  <alias>  (445) 
None

>  <SLURM_JOB_ID>  (445) 
217082

>  <exports>  (445) 
['/opt/xchem-fragalysis-2/maxwin/BulkDock/OUTPUTS/RdRp_knitwork_green_site_rna_tunnel_pure_split4000_batch011_217082.sdf']

$$$$
146164
     RDKit          3D

 19 20  0  0  0  0  0  0  0  0999 V2000
  -26.7068  -31.9218  -22.2524 O   0  0  0  0  0  0  0  0  0  0  0  0
  -25.8106  -31.2327  -21.9534 C   0  0  0  0  0  0  0  0  0  0  0  0
  -25.9616  -29.9727  -21.1106 C   0  0  0  0  0  0  0  0  0  0  0  0
  -27.4043  -29.6719  -20.6940 C   0  0  0  0  0  0  0  0  0  0  0  0
  -27.8983  -30.5719  -19.5708 C   0  0  2  0  0  0  0  0  0  0  0  0
  -29.3075  -30.3979  -19.2811 N   0  0  0  0  0  0  0  0  0  0  0  0
  -29.5196  -30.1630  -17.9412 C   0  0  0  0  0  0  0  0  0  0  0  0
  -30.5808  -30.2274  -17.3514 O   0  0  0  0  0  0  0  0  0  0  0  0
  -28.3385  -29.8902  -17.3566 N   0  0  0  0  0  0  0  0  0  0  0  0
  -27.3275  -30.2159  -18.1951 C   0  0  0  0  0  0  0  0  0  0  0  0
  -26.1592  -30.2645  -17.8537 O   0  0  0  0  0  0  0  0  0  0  0  0
  -24.2995  -31.3214  -22.3280 N   0  0  0  0  0  0  0  0  0  0  0  0
  -23.6328  -32.1856  -23.1877 C   0  0  0  0  0  0  0  0  0  0  0  0
  -24.2968  -33.0876  -24.0138 C   0  0  0  0  0  0  0  0  0  0  0  0
  -23.6719  -33.8921  -24.9136 N   0  0  0  0  0  0  0  0  0  0  0  0
  -22.3253  -33.7851  -24.9742 C   0  0  0  0  0  0  0  0  0  0  0  0
  -21.5875  -32.9254  -24.1808 C   0  0  0  0  0  0  0  0  0  0  0  0
  -20.2573  -32.8661  -24.3061 F   0  0  0  0  0  0  0  0  0  0  0  0
  -22.2439  -32.1165  -23.2693 C   0  0  0  0  0  0  0  0  0  0  0  0
  1  2  2  0
  2  3  1  0
  3  4  1  0
  5  4  1  6
  5  6  1  0
  6  7  1  0
  7  8  2  0
  7  9  1  0
  9 10  1  0
 10 11  2  0
  2 12  1  0
 12 13  1  0
 13 14  2  0
 14 15  1  0
 15 16  2  0
 16 17  1  0
 17 18  1  0
 17 19  2  0
 10  5  1  0
 19 13  1  0
M  END
>  <HIPPO Pose ID>  (446) 
146164

>  <fragmenstein_outcome>  (446) 
acceptable

>  <energy_score>  (446) 
-60.318183

>  <distance_score>  (446) 
0.913029

>  <fragmenstein_mode>  (446) 
expansion

>  <HIPPO Compound ID>  (446) 
48989

>  <name>  (446) 
SGTZPFARPZHPAN-QMMMGPOBSA-N

>  <ref_pdb>  (446) 
z0519a

>  <ref_mols>  (446) 
z0411a,z0519a,z0637a

>  <csv_name>  (446) 
RdRp_knitwork_green_site_rna_tunnel_pure_split4000_batch011.csv

>  <fragmenstein_runtime>  (446) 
3.719004

>  <tags>  (446) 
['Fragmenstein placed']

>  <original ID>  (446) 
SGTZPFARPZHPAN-QMMMGPOBSA-N

>  <fragmenstein_error>  (446) 
None

>  <original SMILES>  (446) 
O=C(CC[C@@H]1NC(=O)NC1=O)Nc1cncc(F)c1

>  <inchikey>  (446) 
SGTZPFARPZHPAN-QMMMGPOBSA-N

>  <SLURM_JOB_NAME>  (446) 
BulkDock.place:Flavi_NS5_RdRp:RdRp_knitwork_green_site_rna_tunnel_pure_split4000_batch011

>  <scratch_subdir>  (446) 
/opt/xchem-fragalysis-2/maxwin/BulkDock/SCRATCH/217082/C48989-P140

>  <alias>  (446) 
None

>  <SLURM_JOB_ID>  (446) 
217082

>  <exports>  (446) 
['/opt/xchem-fragalysis-2/maxwin/BulkDock/OUTPUTS/RdRp_knitwork_green_site_rna_tunnel_pure_split4000_batch011_217082.sdf']

$$$$
146452
     RDKit          3D

 23 25  0  0  0  0  0  0  0  0999 V2000
  -26.1682  -31.3874  -21.8404 C   0  0  0  0  0  0  0  0  0  0  0  0
  -27.4952  -30.6838  -21.5761 C   0  0  0  0  0  0  0  0  0  0  0  0
  -27.8833  -30.5168  -20.1331 C   0  0  0  0  0  0  0  0  0  0  0  0
  -29.2320  -30.4325  -19.7863 C   0  0  0  0  0  0  0  0  0  0  0  0
  -29.6136  -30.3953  -18.4436 C   0  0  0  0  0  0  0  0  0  0  0  0
  -28.6852  -30.4434  -17.4196 C   0  0  0  0  0  0  0  0  0  0  0  0
  -29.1263  -30.5213  -16.1564 N   0  0  0  0  0  0  0  0  0  0  0  0
  -28.2025  -30.6418  -15.1858 C   0  0  0  0  0  0  0  0  0  0  0  0
  -26.8400  -30.6218  -15.4121 C   0  0  0  0  0  0  0  0  0  0  0  0
  -26.3777  -30.4537  -16.7120 C   0  0  0  0  0  0  0  0  0  0  0  0
  -24.9791  -30.4227  -16.9145 N   0  0  0  0  0  0  0  0  0  0  0  0
  -24.4239  -31.7586  -17.0774 C   0  0  0  0  0  0  0  0  0  0  0  0
  -23.1890  -31.9164  -16.2001 C   0  0  0  0  0  0  0  0  0  0  0  0
  -22.6851  -33.3577  -16.2358 C   0  0  0  0  0  0  0  0  0  0  0  0
  -21.4314  -33.5864  -15.3960 C   0  0  2  0  0  0  0  0  0  0  0  0
  -20.9423  -34.9356  -15.6058 N   0  0  0  0  0  0  0  0  0  0  0  0
  -21.1502  -35.7075  -14.4911 C   0  0  0  0  0  0  0  0  0  0  0  0
  -21.2540  -36.9221  -14.4840 O   0  0  0  0  0  0  0  0  0  0  0  0
  -21.3822  -34.8969  -13.4382 N   0  0  0  0  0  0  0  0  0  0  0  0
  -21.7346  -33.6677  -13.8911 C   0  0  0  0  0  0  0  0  0  0  0  0
  -22.2702  -32.8136  -13.2036 O   0  0  0  0  0  0  0  0  0  0  0  0
  -27.3153  -30.4361  -17.7571 C   0  0  0  0  0  0  0  0  0  0  0  0
  -26.9362  -30.4553  -19.1124 C   0  0  0  0  0  0  0  0  0  0  0  0
  1  2  1  0
  2  3  1  0
  3  4  2  0
  4  5  1  0
  5  6  2  0
  6  7  1  0
  7  8  2  0
  8  9  1  0
  9 10  2  0
 10 11  1  0
 11 12  1  0
 12 13  1  0
 13 14  1  0
 15 14  1  6
 15 16  1  0
 16 17  1  0
 17 18  2  0
 17 19  1  0
 19 20  1  0
 20 21  2  0
 10 22  1  0
 22 23  2  0
 23  3  1  0
 22  6  1  0
 20 15  1  0
M  END
>  <HIPPO Pose ID>  (447) 
146452

>  <fragmenstein_outcome>  (447) 
acceptable

>  <energy_score>  (447) 
-43.847357

>  <distance_score>  (447) 
0.846089

>  <fragmenstein_mode>  (447) 
expansion

>  <HIPPO Compound ID>  (447) 
28994

>  <name>  (447) 
FUPWFASPGDXXCE-HNNXBMFYSA-N

>  <ref_pdb>  (447) 
z1040a

>  <ref_mols>  (447) 
z0519a,z1040a

>  <csv_name>  (447) 
RdRp_knitwork_green_site_rna_tunnel_pure_split4000_batch004.csv

>  <fragmenstein_runtime>  (447) 
5.161361

>  <tags>  (447) 
['Fragmenstein placed']

>  <original ID>  (447) 
FUPWFASPGDXXCE-HNNXBMFYSA-N

>  <fragmenstein_error>  (447) 
None

>  <original SMILES>  (447) 
CCc1ccc2nccc(NCCC[C@@H]3NC(=O)NC3=O)c2c1

>  <inchikey>  (447) 
FUPWFASPGDXXCE-HNNXBMFYSA-N

>  <SLURM_JOB_NAME>  (447) 
BulkDock.place:Flavi_NS5_RdRp:RdRp_knitwork_green_site_rna_tunnel_pure_split4000_batch004

>  <scratch_subdir>  (447) 
/opt/xchem-fragalysis-2/maxwin/BulkDock/SCRATCH/217075/C28994-P208

>  <alias>  (447) 
None

>  <SLURM_JOB_ID>  (447) 
217075

>  <exports>  (447) 
['/opt/xchem-fragalysis-2/maxwin/BulkDock/OUTPUTS/RdRp_knitwork_green_site_rna_tunnel_pure_split4000_batch004_217075.sdf']

$$$$
147130
     RDKit          3D

 24 26  0  0  0  0  0  0  0  0999 V2000
  -25.8473  -28.9771  -25.0068 N   0  0  0  0  0  0  0  0  0  0  0  0
  -25.8304  -28.5868  -23.7340 C   0  0  0  0  0  0  0  0  0  0  0  0
  -26.5600  -29.1524  -22.8062 N   0  0  0  0  0  0  0  0  0  0  0  0
  -26.4626  -28.4335  -21.6423 C   0  0  0  0  0  0  0  0  0  0  0  0
  -25.6061  -27.3597  -21.6642 C   0  0  0  0  0  0  0  0  0  0  0  0
  -25.2227  -26.4057  -20.5964 C   0  0  0  0  0  0  0  0  0  0  0  0
  -25.8677  -26.6632  -19.2448 C   0  0  0  0  0  0  0  0  0  0  0  0
  -25.1275  -27.6180  -18.2992 C   0  0  0  0  0  0  0  0  0  0  0  0
  -24.0100  -27.4058  -18.0225 O   0  0  0  0  0  0  0  0  0  0  0  0
  -26.1049  -28.7227  -17.7840 N   0  0  0  0  0  0  0  0  0  0  0  0
  -25.9033  -29.8841  -16.5947 S   0  0  0  0  0  0  0  0  0  0  0  0
  -24.7463  -30.7104  -16.8146 O   0  0  0  0  0  0  0  0  0  0  0  0
  -26.2175  -29.3151  -15.3086 O   0  0  0  0  0  0  0  0  0  0  0  0
  -27.3271  -30.8275  -17.1013 C   0  0  0  0  0  0  0  0  0  0  0  0
  -28.5400  -30.4290  -16.5757 C   0  0  0  0  0  0  0  0  0  0  0  0
  -29.6501  -30.3256  -17.3373 N   0  0  0  0  0  0  0  0  0  0  0  0
  -29.5268  -30.5469  -18.6606 C   0  0  0  0  0  0  0  0  0  0  0  0
  -30.5472  -30.1710  -19.5133 C   0  0  0  0  0  0  0  0  0  0  0  0
  -30.3632  -30.1203  -20.8895 C   0  0  0  0  0  0  0  0  0  0  0  0
  -29.1592  -30.5302  -21.4292 C   0  0  0  0  0  0  0  0  0  0  0  0
  -28.1714  -31.0781  -20.6194 C   0  0  0  0  0  0  0  0  0  0  0  0
  -28.3353  -31.0369  -19.2352 C   0  0  0  0  0  0  0  0  0  0  0  0
  -27.2629  -31.3131  -18.4030 C   0  0  0  0  0  0  0  0  0  0  0  0
  -24.9373  -27.2115  -23.2366 S   0  0  0  0  0  0  0  0  0  0  0  0
  1  2  1  0
  2  3  2  0
  3  4  1  0
  4  5  2  0
  5  6  1  0
  6  7  1  0
  7  8  1  0
  8  9  2  0
  8 10  1  0
 10 11  1  0
 11 12  2  0
 11 13  2  0
 11 14  1  0
 14 15  2  0
 15 16  1  0
 16 17  2  0
 17 18  1  0
 18 19  2  0
 19 20  1  0
 20 21  2  0
 21 22  1  0
 22 23  2  0
  5 24  1  0
 24  2  1  0
 23 14  1  0
 22 17  1  0
M  END
>  <HIPPO Pose ID>  (448) 
147130

>  <fragmenstein_outcome>  (448) 
acceptable

>  <energy_score>  (448) 
-58.085696

>  <distance_score>  (448) 
0.998594

>  <fragmenstein_mode>  (448) 
expansion

>  <HIPPO Compound ID>  (448) 
34458

>  <name>  (448) 
DQZBDEDULOLOSS-UHFFFAOYSA-N

>  <ref_pdb>  (448) 
z0496a

>  <ref_mols>  (448) 
z0496a,z0881a

>  <csv_name>  (448) 
RdRp_knitwork_green_site_rna_tunnel_pure_split4000_batch005.csv

>  <fragmenstein_runtime>  (448) 
4.021719

>  <tags>  (448) 
['Fragmenstein placed']

>  <original ID>  (448) 
DQZBDEDULOLOSS-UHFFFAOYSA-N

>  <fragmenstein_error>  (448) 
None

>  <original SMILES>  (448) 
Nc1ncc(CCC(=O)NS(=O)(=O)c2cnc3ccccc3c2)s1

>  <inchikey>  (448) 
DQZBDEDULOLOSS-UHFFFAOYSA-N

>  <SLURM_JOB_NAME>  (448) 
BulkDock.place:Flavi_NS5_RdRp:RdRp_knitwork_green_site_rna_tunnel_pure_split4000_batch005

>  <scratch_subdir>  (448) 
/opt/xchem-fragalysis-2/maxwin/BulkDock/SCRATCH/217076/C34458-P136

>  <alias>  (448) 
None

>  <SLURM_JOB_ID>  (448) 
217076

>  <exports>  (448) 
['/opt/xchem-fragalysis-2/maxwin/BulkDock/OUTPUTS/RdRp_knitwork_green_site_rna_tunnel_pure_split4000_batch005_217076.sdf']

$$$$
147164
     RDKit          3D

 15 17  0  0  0  0  0  0  0  0999 V2000
  -29.4818  -29.9244  -18.7673 C   0  0  0  0  0  0  0  0  0  0  0  0
  -28.8474  -29.6228  -19.9715 C   0  0  0  0  0  0  0  0  0  0  0  0
  -27.4426  -29.5608  -20.0712 C   0  0  0  0  0  0  0  0  0  0  0  0
  -26.7816  -29.1802  -21.3326 C   0  0  0  0  0  0  0  0  0  0  0  0
  -25.9899  -28.0304  -21.4257 C   0  0  0  0  0  0  0  0  0  0  0  0
  -25.4530  -27.6797  -22.6559 C   0  0  0  0  0  0  0  0  0  0  0  0
  -25.6460  -28.3828  -23.7906 N   0  0  0  0  0  0  0  0  0  0  0  0
  -26.3917  -29.4983  -23.6911 C   0  0  0  0  0  0  0  0  0  0  0  0
  -26.9720  -29.9254  -22.5030 C   0  0  0  0  0  0  0  0  0  0  0  0
  -26.6882  -29.8467  -18.9015 C   0  0  0  0  0  0  0  0  0  0  0  0
  -25.2972  -29.9006  -18.5901 C   0  0  0  0  0  0  0  0  0  0  0  0
  -25.1554  -30.2361  -17.2648 C   0  0  0  0  0  0  0  0  0  0  0  0
  -26.4085  -30.3726  -16.7410 N   0  0  0  0  0  0  0  0  0  0  0  0
  -27.3596  -30.1480  -17.7112 C   0  0  0  0  0  0  0  0  0  0  0  0
  -28.7520  -30.1838  -17.6100 C   0  0  0  0  0  0  0  0  0  0  0  0
  1  2  2  0
  2  3  1  0
  3  4  1  0
  4  5  2  0
  5  6  1  0
  6  7  2  0
  7  8  1  0
  8  9  2  0
  3 10  2  0
 10 11  1  0
 11 12  2  0
 12 13  1  0
 13 14  1  0
 14 15  2  0
 15  1  1  0
  9  4  1  0
 14 10  1  0
M  END
>  <HIPPO Pose ID>  (449) 
147164

>  <fragmenstein_outcome>  (449) 
acceptable

>  <energy_score>  (449) 
-20.170641

>  <distance_score>  (449) 
0.942527

>  <fragmenstein_mode>  (449) 
expansion

>  <HIPPO Compound ID>  (449) 
28593

>  <name>  (449) 
TUXUXBUGFPLVLM-UHFFFAOYSA-N

>  <ref_pdb>  (449) 
z0221a

>  <ref_mols>  (449) 
z0041a,z0221a

>  <csv_name>  (449) 
RdRp_knitwork_green_site_rna_tunnel_pure_split4000_batch002.csv

>  <fragmenstein_runtime>  (449) 
2.465094

>  <tags>  (449) 
['Fragmenstein placed']

>  <original ID>  (449) 
TUXUXBUGFPLVLM-UHFFFAOYSA-N

>  <fragmenstein_error>  (449) 
None

>  <original SMILES>  (449) 
c1cc(-c2ccncc2)c2cc[nH]c2c1

>  <inchikey>  (449) 
TUXUXBUGFPLVLM-UHFFFAOYSA-N

>  <SLURM_JOB_NAME>  (449) 
BulkDock.place:Flavi_NS5_RdRp:RdRp_knitwork_green_site_rna_tunnel_pure_split4000_batch002

>  <scratch_subdir>  (449) 
/opt/xchem-fragalysis-2/maxwin/BulkDock/SCRATCH/217073/C28593-P105

>  <alias>  (449) 
None

>  <SLURM_JOB_ID>  (449) 
217073

>  <exports>  (449) 
['/opt/xchem-fragalysis-2/maxwin/BulkDock/OUTPUTS/RdRp_knitwork_green_site_rna_tunnel_pure_split4000_batch002_217073.sdf']

$$$$
147194
     RDKit          3D

 22 24  0  0  0  0  0  0  0  0999 V2000
  -26.7428  -34.6350  -17.4098 O   0  0  0  0  0  0  0  0  0  0  0  0
  -25.5707  -34.3673  -18.2077 S   0  0  0  0  0  0  0  0  0  0  0  0
  -25.2534  -35.2440  -19.3135 O   0  0  0  0  0  0  0  0  0  0  0  0
  -24.2195  -34.3206  -17.2508 N   0  0  0  0  0  0  0  0  0  0  0  0
  -23.9850  -33.3004  -16.2269 C   0  0  0  0  0  0  0  0  0  0  0  0
  -22.6820  -32.6600  -16.6159 C   0  0  0  0  0  0  0  0  0  0  0  0
  -22.2053  -32.7097  -17.8546 N   0  0  0  0  0  0  0  0  0  0  0  0
  -21.0042  -32.0661  -17.8338 C   0  0  0  0  0  0  0  0  0  0  0  0
  -20.7184  -31.6333  -16.5669 C   0  0  0  0  0  0  0  0  0  0  0  0
  -21.7769  -32.0354  -15.7858 N   0  0  0  0  0  0  0  0  0  0  0  0
  -21.7938  -31.9223  -14.3384 C   0  0  0  0  0  0  0  0  0  0  0  0
  -22.8455  -31.1924  -13.8839 F   0  0  0  0  0  0  0  0  0  0  0  0
  -20.6718  -31.2948  -13.8880 F   0  0  0  0  0  0  0  0  0  0  0  0
  -25.7341  -32.7375  -18.8807 C   0  0  0  0  0  0  0  0  0  0  0  0
  -26.7455  -31.8799  -18.4277 C   0  0  0  0  0  0  0  0  0  0  0  0
  -26.9458  -30.6317  -19.0312 C   0  0  0  0  0  0  0  0  0  0  0  0
  -26.1056  -30.3156  -20.0953 C   0  0  0  0  0  0  0  0  0  0  0  0
  -26.1373  -29.1628  -20.8229 O   0  0  0  0  0  0  0  0  0  0  0  0
  -25.1872  -29.2888  -21.7879 C   0  0  0  0  0  0  0  0  0  0  0  0
  -24.5471  -30.4988  -21.6914 C   0  0  0  0  0  0  0  0  0  0  0  0
  -25.1150  -31.1613  -20.5812 C   0  0  0  0  0  0  0  0  0  0  0  0
  -24.9104  -32.3994  -19.9619 C   0  0  0  0  0  0  0  0  0  0  0  0
  1  2  2  0
  2  3  2  0
  2  4  1  0
  4  5  1  0
  5  6  1  0
  6  7  2  0
  7  8  1  0
  8  9  2  0
  9 10  1  0
 10 11  1  0
 11 12  1  0
 11 13  1  0
  2 14  1  0
 14 15  2  0
 15 16  1  0
 16 17  2  0
 17 18  1  0
 18 19  1  0
 19 20  2  0
 20 21  1  0
 21 22  2  0
 10  6  1  0
 22 14  1  0
 21 17  1  0
M  END
>  <HIPPO Pose ID>  (450) 
147194

>  <fragmenstein_outcome>  (450) 
acceptable

>  <energy_score>  (450) 
-34.914273

>  <distance_score>  (450) 
0.984025

>  <fragmenstein_mode>  (450) 
expansion

>  <HIPPO Compound ID>  (450) 
47861

>  <name>  (450) 
ANROVYFLYVOLJR-UHFFFAOYSA-N

>  <ref_pdb>  (450) 
3vws-a

>  <ref_mols>  (450) 
d0378a,3vws-a

>  <csv_name>  (450) 
RdRp_knitwork_green_site_rna_tunnel_pure_split4000_batch009.csv

>  <fragmenstein_runtime>  (450) 
6.971965

>  <tags>  (450) 
['Fragmenstein placed']

>  <original ID>  (450) 
ANROVYFLYVOLJR-UHFFFAOYSA-N

>  <fragmenstein_error>  (450) 
None

>  <original SMILES>  (450) 
O=S(=O)(NCc1nccn1C(F)F)c1ccc2occc2c1

>  <inchikey>  (450) 
ANROVYFLYVOLJR-UHFFFAOYSA-N

>  <SLURM_JOB_NAME>  (450) 
BulkDock.place:Flavi_NS5_RdRp:RdRp_knitwork_green_site_rna_tunnel_pure_split4000_batch009

>  <scratch_subdir>  (450) 
/opt/xchem-fragalysis-2/maxwin/BulkDock/SCRATCH/217080/C47861-P218

>  <alias>  (450) 
None

>  <SLURM_JOB_ID>  (450) 
217080

>  <exports>  (450) 
['/opt/xchem-fragalysis-2/maxwin/BulkDock/OUTPUTS/RdRp_knitwork_green_site_rna_tunnel_pure_split4000_batch009_217080.sdf']

$$$$
147288
     RDKit          3D

 20 22  0  0  0  0  0  0  0  0999 V2000
  -28.4084  -32.5045  -19.0845 C   0  0  0  0  0  0  0  0  0  0  0  0
  -27.2682  -31.7765  -18.4093 C   0  0  1  0  0  0  0  0  0  0  0  0
  -26.4420  -32.6057  -17.5345 N   0  0  0  0  0  0  0  0  0  0  0  0
  -25.6798  -33.6919  -18.1311 C   0  0  0  0  0  0  0  0  0  0  0  0
  -24.6017  -34.1793  -17.1647 C   0  0  0  0  0  0  0  0  0  0  0  0
  -23.3896  -33.3026  -16.9627 C   0  0  0  0  0  0  0  0  0  0  0  0
  -22.3986  -33.2360  -17.9538 C   0  0  0  0  0  0  0  0  0  0  0  0
  -21.2166  -32.5165  -17.7544 C   0  0  0  0  0  0  0  0  0  0  0  0
  -21.0788  -31.8732  -16.5275 C   0  0  0  0  0  0  0  0  0  0  0  0
  -20.0003  -31.1384  -16.1415 O   0  0  0  0  0  0  0  0  0  0  0  0
  -20.2620  -30.6792  -14.8899 C   0  0  0  0  0  0  0  0  0  0  0  0
  -21.4929  -31.1203  -14.4594 C   0  0  0  0  0  0  0  0  0  0  0  0
  -22.0338  -31.8965  -15.5191 C   0  0  0  0  0  0  0  0  0  0  0  0
  -23.2167  -32.6235  -15.7379 C   0  0  0  0  0  0  0  0  0  0  0  0
  -26.3891  -31.0347  -19.3503 C   0  0  0  0  0  0  0  0  0  0  0  0
  -25.8009  -31.5195  -20.4968 C   0  0  0  0  0  0  0  0  0  0  0  0
  -24.7750  -30.6637  -20.7292 N   0  0  0  0  0  0  0  0  0  0  0  0
  -23.6537  -30.9715  -21.5619 C   0  0  0  0  0  0  0  0  0  0  0  0
  -24.9134  -29.5968  -19.8987 C   0  0  0  0  0  0  0  0  0  0  0  0
  -25.8975  -29.7844  -19.0491 N   0  0  0  0  0  0  0  0  0  0  0  0
  2  1  1  6
  2  3  1  0
  3  4  1  0
  4  5  1  0
  5  6  1  0
  6  7  2  0
  7  8  1  0
  8  9  2  0
  9 10  1  0
 10 11  1  0
 11 12  2  0
 12 13  1  0
 13 14  2  0
  2 15  1  0
 15 16  2  0
 16 17  1  0
 17 18  1  0
 17 19  1  0
 19 20  2  0
 14  6  1  0
 20 15  1  0
 13  9  1  0
M  END
>  <HIPPO Pose ID>  (451) 
147288

>  <fragmenstein_outcome>  (451) 
acceptable

>  <energy_score>  (451) 
-32.157036

>  <distance_score>  (451) 
0.97326

>  <fragmenstein_mode>  (451) 
expansion

>  <HIPPO Compound ID>  (451) 
47150

>  <name>  (451) 
ZOOOETCPLPLVPV-GFCCVEGCSA-N

>  <ref_pdb>  (451) 
3vws-a

>  <ref_mols>  (451) 
d0378a,3vws-a

>  <csv_name>  (451) 
RdRp_knitwork_green_site_rna_tunnel_pure_split4000_batch009.csv

>  <fragmenstein_runtime>  (451) 
21.947629

>  <tags>  (451) 
['Fragmenstein placed']

>  <original ID>  (451) 
ZOOOETCPLPLVPV-GFCCVEGCSA-N

>  <fragmenstein_error>  (451) 
None

>  <original SMILES>  (451) 
C[C@@H](NCCc1ccc2occc2c1)c1cn(C)cn1

>  <inchikey>  (451) 
ZOOOETCPLPLVPV-GFCCVEGCSA-N

>  <SLURM_JOB_NAME>  (451) 
BulkDock.place:Flavi_NS5_RdRp:RdRp_knitwork_green_site_rna_tunnel_pure_split4000_batch009

>  <scratch_subdir>  (451) 
/opt/xchem-fragalysis-2/maxwin/BulkDock/SCRATCH/217080/C47150-P218

>  <alias>  (451) 
None

>  <SLURM_JOB_ID>  (451) 
217080

>  <exports>  (451) 
['/opt/xchem-fragalysis-2/maxwin/BulkDock/OUTPUTS/RdRp_knitwork_green_site_rna_tunnel_pure_split4000_batch009_217080.sdf']

$$$$
147524
     RDKit          3D

 20 23  0  0  0  0  0  0  0  0999 V2000
  -24.7586  -25.9494  -19.1323 C   0  0  0  0  0  0  0  0  0  0  0  0
  -24.4334  -26.3326  -20.4273 C   0  0  0  0  0  0  0  0  0  0  0  0
  -24.6827  -27.6361  -20.8145 C   0  0  0  0  0  0  0  0  0  0  0  0
  -25.2853  -28.4970  -19.8989 C   0  0  0  0  0  0  0  0  0  0  0  0
  -25.7471  -29.8097  -20.3418 C   0  0  0  0  0  0  0  0  0  0  0  0
  -25.4387  -30.3102  -21.5329 N   0  0  0  0  0  0  0  0  0  0  0  0
  -26.1564  -31.4580  -21.6793 C   0  0  0  0  0  0  0  0  0  0  0  0
  -26.9392  -31.6694  -20.5770 C   0  0  0  0  0  0  0  0  0  0  0  0
  -26.6637  -30.6385  -19.7021 N   0  0  0  0  0  0  0  0  0  0  0  0
  -27.3854  -30.4452  -18.5022 C   0  0  0  0  0  0  0  0  0  0  0  0
  -28.7805  -30.2968  -18.6082 C   0  0  0  0  0  0  0  0  0  0  0  0
  -29.5595  -30.1507  -17.4663 C   0  0  0  0  0  0  0  0  0  0  0  0
  -28.9247  -30.1820  -16.2387 C   0  0  0  0  0  0  0  0  0  0  0  0
  -27.5497  -30.3443  -16.1320 C   0  0  0  0  0  0  0  0  0  0  0  0
  -26.7491  -30.4739  -17.2560 C   0  0  0  0  0  0  0  0  0  0  0  0
  -27.1800  -30.3722  -14.6939 C   0  0  0  0  0  0  0  0  0  0  0  0
  -28.3610  -29.8628  -14.0229 O   0  0  0  0  0  0  0  0  0  0  0  0
  -29.5024  -30.0816  -14.8792 C   0  0  0  0  0  0  0  0  0  0  0  0
  -25.5492  -28.1485  -18.6211 N   0  0  0  0  0  0  0  0  0  0  0  0
  -25.2790  -26.8855  -18.2651 C   0  0  0  0  0  0  0  0  0  0  0  0
  1  2  2  0
  2  3  1  0
  3  4  2  0
  4  5  1  0
  5  6  2  0
  6  7  1  0
  7  8  2  0
  8  9  1  0
  9 10  1  0
 10 11  2  0
 11 12  1  0
 12 13  2  0
 13 14  1  0
 14 15  2  0
 14 16  1  0
 16 17  1  0
 17 18  1  0
  4 19  1  0
 19 20  2  0
 20  1  1  0
  9  5  1  0
 15 10  1  0
 18 13  1  0
M  END
>  <HIPPO Pose ID>  (452) 
147524

>  <fragmenstein_outcome>  (452) 
acceptable

>  <energy_score>  (452) 
-20.43956

>  <distance_score>  (452) 
0.99592

>  <fragmenstein_mode>  (452) 
expansion

>  <HIPPO Compound ID>  (452) 
20942

>  <name>  (452) 
JYUOCNISSGVTRB-UHFFFAOYSA-N

>  <ref_pdb>  (452) 
d0378a

>  <ref_mols>  (452) 
d0378a,z0215a

>  <csv_name>  (452) 
RdRp_knitwork_green_site_rna_tunnel_pure_split4000_batch015.csv

>  <fragmenstein_runtime>  (452) 
6.511633

>  <tags>  (452) 
['Fragmenstein placed']

>  <original ID>  (452) 
JYUOCNISSGVTRB-UHFFFAOYSA-N

>  <fragmenstein_error>  (452) 
None

>  <original SMILES>  (452) 
c1ccc(-c2nccn2-c2ccc3c(c2)COC3)nc1

>  <inchikey>  (452) 
JYUOCNISSGVTRB-UHFFFAOYSA-N

>  <SLURM_JOB_NAME>  (452) 
BulkDock.place:Flavi_NS5_RdRp:RdRp_knitwork_green_site_rna_tunnel_pure_split4000_batch015

>  <scratch_subdir>  (452) 
/opt/xchem-fragalysis-2/maxwin/BulkDock/SCRATCH/217086/C20942-P1

>  <alias>  (452) 
None

>  <SLURM_JOB_ID>  (452) 
217086

>  <exports>  (452) 
['/opt/xchem-fragalysis-2/maxwin/BulkDock/OUTPUTS/RdRp_knitwork_green_site_rna_tunnel_pure_split4000_batch015_217086.sdf']

$$$$
147842
     RDKit          3D

 22 24  0  0  0  0  0  0  0  0999 V2000
  -23.2136  -35.6745  -18.7058 C   0  0  0  0  0  0  0  0  0  0  0  0
  -24.0602  -34.7080  -17.9808 N   0  0  0  0  0  0  0  0  0  0  0  0
  -23.4171  -33.7622  -17.0570 C   0  0  0  0  0  0  0  0  0  0  0  0
  -22.1615  -33.1774  -17.7189 C   0  0  0  0  0  0  0  0  0  0  0  0
  -21.7997  -31.7796  -17.2537 C   0  0  0  0  0  0  0  0  0  0  0  0
  -21.3712  -31.6929  -15.8794 N   0  0  0  0  0  0  0  0  0  0  0  0
  -22.1864  -31.5815  -14.7896 C   0  0  0  0  0  0  0  0  0  0  0  0
  -21.3330  -31.3742  -13.7325 C   0  0  0  0  0  0  0  0  0  0  0  0
  -20.0283  -31.3778  -14.1519 N   0  0  0  0  0  0  0  0  0  0  0  0
  -20.0818  -31.5620  -15.4519 C   0  0  0  0  0  0  0  0  0  0  0  0
  -25.6543  -34.5686  -18.4624 S   0  0  0  0  0  0  0  0  0  0  0  0
  -26.5415  -34.7148  -17.3343 O   0  0  0  0  0  0  0  0  0  0  0  0
  -25.8402  -35.3967  -19.6339 O   0  0  0  0  0  0  0  0  0  0  0  0
  -25.7939  -32.8969  -19.0412 C   0  0  0  0  0  0  0  0  0  0  0  0
  -26.6805  -32.0038  -18.4253 C   0  0  0  0  0  0  0  0  0  0  0  0
  -26.8631  -30.7160  -18.9416 C   0  0  0  0  0  0  0  0  0  0  0  0
  -26.1158  -30.3864  -20.0665 C   0  0  0  0  0  0  0  0  0  0  0  0
  -26.1454  -29.1906  -20.7180 O   0  0  0  0  0  0  0  0  0  0  0  0
  -25.2947  -29.3073  -21.7689 C   0  0  0  0  0  0  0  0  0  0  0  0
  -24.7208  -30.5535  -21.8066 C   0  0  0  0  0  0  0  0  0  0  0  0
  -25.2334  -31.2569  -20.6963 C   0  0  0  0  0  0  0  0  0  0  0  0
  -25.0628  -32.5466  -20.1828 C   0  0  0  0  0  0  0  0  0  0  0  0
  1  2  1  0
  2  3  1  0
  3  4  1  0
  4  5  1  0
  5  6  1  0
  6  7  1  0
  7  8  2  0
  8  9  1  0
  9 10  2  0
  2 11  1  0
 11 12  2  0
 11 13  2  0
 11 14  1  0
 14 15  2  0
 15 16  1  0
 16 17  2  0
 17 18  1  0
 18 19  1  0
 19 20  2  0
 20 21  1  0
 21 22  2  0
 10  6  1  0
 22 14  1  0
 21 17  1  0
M  END
>  <HIPPO Pose ID>  (453) 
147842

>  <fragmenstein_outcome>  (453) 
acceptable

>  <energy_score>  (453) 
-34.497789

>  <distance_score>  (453) 
0.907016

>  <fragmenstein_mode>  (453) 
expansion

>  <HIPPO Compound ID>  (453) 
45671

>  <name>  (453) 
YTDHYIZMLPNLBW-UHFFFAOYSA-N

>  <ref_pdb>  (453) 
3vws-a

>  <ref_mols>  (453) 
d0378a,3vws-a

>  <csv_name>  (453) 
RdRp_knitwork_green_site_rna_tunnel_pure_split4000_batch009.csv

>  <fragmenstein_runtime>  (453) 
5.019336

>  <tags>  (453) 
['Fragmenstein placed']

>  <original ID>  (453) 
YTDHYIZMLPNLBW-UHFFFAOYSA-N

>  <fragmenstein_error>  (453) 
None

>  <original SMILES>  (453) 
CN(CCCn1ccnc1)S(=O)(=O)c1ccc2occc2c1

>  <inchikey>  (453) 
YTDHYIZMLPNLBW-UHFFFAOYSA-N

>  <SLURM_JOB_NAME>  (453) 
BulkDock.place:Flavi_NS5_RdRp:RdRp_knitwork_green_site_rna_tunnel_pure_split4000_batch009

>  <scratch_subdir>  (453) 
/opt/xchem-fragalysis-2/maxwin/BulkDock/SCRATCH/217080/C45671-P218

>  <alias>  (453) 
None

>  <SLURM_JOB_ID>  (453) 
217080

>  <exports>  (453) 
['/opt/xchem-fragalysis-2/maxwin/BulkDock/OUTPUTS/RdRp_knitwork_green_site_rna_tunnel_pure_split4000_batch009_217080.sdf']

$$$$
148273
     RDKit          3D

 22 24  0  0  0  0  0  0  0  0999 V2000
  -18.3739  -30.6925  -15.7213 C   0  0  0  0  0  0  0  0  0  0  0  0
  -18.8907  -31.6514  -14.6740 C   0  0  0  0  0  0  0  0  0  0  0  0
  -20.3298  -31.7366  -14.6185 N   0  0  0  0  0  0  0  0  0  0  0  0
  -21.1825  -32.1803  -15.5897 C   0  0  0  0  0  0  0  0  0  0  0  0
  -22.4441  -32.1472  -15.0322 C   0  0  0  0  0  0  0  0  0  0  0  0
  -23.7678  -32.4700  -15.6191 C   0  0  0  0  0  0  0  0  0  0  0  0
  -23.8018  -33.6477  -16.5900 C   0  0  0  0  0  0  0  0  0  0  0  0
  -25.1918  -34.1036  -16.6883 N   0  0  0  0  0  0  0  0  0  0  0  0
  -25.9149  -34.4134  -18.1605 S   0  0  0  0  0  0  0  0  0  0  0  0
  -27.1481  -35.1028  -17.8593 O   0  0  0  0  0  0  0  0  0  0  0  0
  -24.9061  -34.9859  -19.0221 O   0  0  0  0  0  0  0  0  0  0  0  0
  -26.3488  -32.8090  -18.7884 C   0  0  0  0  0  0  0  0  0  0  0  0
  -26.2613  -32.5921  -20.1694 C   0  0  0  0  0  0  0  0  0  0  0  0
  -26.4999  -31.3230  -20.7134 C   0  0  0  0  0  0  0  0  0  0  0  0
  -26.8068  -30.3068  -19.8135 C   0  0  0  0  0  0  0  0  0  0  0  0
  -27.0138  -29.0025  -20.1410 O   0  0  0  0  0  0  0  0  0  0  0  0
  -27.2836  -28.3444  -18.9845 C   0  0  0  0  0  0  0  0  0  0  0  0
  -27.2525  -29.2116  -17.9147 C   0  0  0  0  0  0  0  0  0  0  0  0
  -26.9288  -30.4911  -18.4404 C   0  0  0  0  0  0  0  0  0  0  0  0
  -26.7118  -31.7767  -17.9061 C   0  0  0  0  0  0  0  0  0  0  0  0
  -22.2295  -31.6702  -13.7180 C   0  0  0  0  0  0  0  0  0  0  0  0
  -20.9541  -31.3787  -13.4788 N   0  0  0  0  0  0  0  0  0  0  0  0
  1  2  1  0
  2  3  1  0
  3  4  1  0
  4  5  2  0
  5  6  1  0
  6  7  1  0
  7  8  1  0
  8  9  1  0
  9 10  2  0
  9 11  2  0
  9 12  1  0
 12 13  2  0
 13 14  1  0
 14 15  2  0
 15 16  1  0
 16 17  1  0
 17 18  2  0
 18 19  1  0
 19 20  2  0
  5 21  1  0
 21 22  2  0
 22  3  1  0
 20 12  1  0
 19 15  1  0
M  END
>  <HIPPO Pose ID>  (454) 
148273

>  <fragmenstein_outcome>  (454) 
acceptable

>  <energy_score>  (454) 
-39.905614

>  <distance_score>  (454) 
0.923122

>  <fragmenstein_mode>  (454) 
expansion

>  <HIPPO Compound ID>  (454) 
36917

>  <name>  (454) 
CQZKKCXGAXGYDF-UHFFFAOYSA-N

>  <ref_pdb>  (454) 
z0628a

>  <ref_mols>  (454) 
z0628a,3vws-a

>  <csv_name>  (454) 
RdRp_knitwork_green_site_rna_tunnel_pure_split4000_batch003.csv

>  <fragmenstein_runtime>  (454) 
8.139598

>  <tags>  (454) 
['Fragmenstein placed']

>  <original ID>  (454) 
CQZKKCXGAXGYDF-UHFFFAOYSA-N

>  <fragmenstein_error>  (454) 
None

>  <original SMILES>  (454) 
CCn1cc(CCNS(=O)(=O)c2ccc3occc3c2)cn1

>  <inchikey>  (454) 
CQZKKCXGAXGYDF-UHFFFAOYSA-N

>  <SLURM_JOB_NAME>  (454) 
BulkDock.place:Flavi_NS5_RdRp:RdRp_knitwork_green_site_rna_tunnel_pure_split4000_batch003

>  <scratch_subdir>  (454) 
/opt/xchem-fragalysis-2/maxwin/BulkDock/SCRATCH/217074/C36917-P150

>  <alias>  (454) 
None

>  <SLURM_JOB_ID>  (454) 
217074

>  <exports>  (454) 
['/opt/xchem-fragalysis-2/maxwin/BulkDock/OUTPUTS/RdRp_knitwork_green_site_rna_tunnel_pure_split4000_batch003_217074.sdf']

$$$$
148313
     RDKit          3D

 22 24  0  0  0  0  0  0  0  0999 V2000
  -22.6849  -34.4383  -17.5348 C   0  0  0  0  0  0  0  0  0  0  0  0
  -23.5236  -33.9276  -16.3748 C   0  0  1  0  0  0  0  0  0  0  0  0
  -23.2726  -32.4495  -16.0430 C   0  0  0  0  0  0  0  0  0  0  0  0
  -21.8867  -32.1360  -15.5746 C   0  0  0  0  0  0  0  0  0  0  0  0
  -20.7456  -31.8794  -16.3747 C   0  0  0  0  0  0  0  0  0  0  0  0
  -19.6811  -31.5352  -15.6510 N   0  0  0  0  0  0  0  0  0  0  0  0
  -20.1111  -31.6036  -14.3878 N   0  0  0  0  0  0  0  0  0  0  0  0
  -19.2076  -31.2435  -13.3235 C   0  0  0  0  0  0  0  0  0  0  0  0
  -21.4249  -31.9645  -14.2822 C   0  0  0  0  0  0  0  0  0  0  0  0
  -24.9799  -34.1653  -16.5117 N   0  0  0  0  0  0  0  0  0  0  0  0
  -25.8766  -34.4245  -17.9023 S   0  0  0  0  0  0  0  0  0  0  0  0
  -27.1423  -34.9503  -17.4411 O   0  0  0  0  0  0  0  0  0  0  0  0
  -25.0776  -35.1493  -18.8613 O   0  0  0  0  0  0  0  0  0  0  0  0
  -26.2258  -32.8161  -18.5699 C   0  0  0  0  0  0  0  0  0  0  0  0
  -26.2383  -32.6605  -19.9632 C   0  0  0  0  0  0  0  0  0  0  0  0
  -26.5071  -31.4146  -20.5463 C   0  0  0  0  0  0  0  0  0  0  0  0
  -26.7428  -30.3569  -19.6734 C   0  0  0  0  0  0  0  0  0  0  0  0
  -26.9718  -29.0676  -20.0433 O   0  0  0  0  0  0  0  0  0  0  0  0
  -27.1560  -28.3575  -18.9009 C   0  0  0  0  0  0  0  0  0  0  0  0
  -27.0460  -29.1764  -17.7987 C   0  0  0  0  0  0  0  0  0  0  0  0
  -26.7616  -30.4792  -18.2880 C   0  0  0  0  0  0  0  0  0  0  0  0
  -26.5117  -31.7413  -17.7120 C   0  0  0  0  0  0  0  0  0  0  0  0
  2  1  1  6
  2  3  1  0
  3  4  1  0
  4  5  1  0
  5  6  2  0
  6  7  1  0
  7  8  1  0
  7  9  1  0
  2 10  1  0
 10 11  1  0
 11 12  2  0
 11 13  2  0
 11 14  1  0
 14 15  2  0
 15 16  1  0
 16 17  2  0
 17 18  1  0
 18 19  1  0
 19 20  2  0
 20 21  1  0
 21 22  2  0
  9  4  2  0
 22 14  1  0
 21 17  1  0
M  END
>  <HIPPO Pose ID>  (455) 
148313

>  <fragmenstein_outcome>  (455) 
acceptable

>  <energy_score>  (455) 
-48.522982

>  <distance_score>  (455) 
0.755831

>  <fragmenstein_mode>  (455) 
expansion

>  <HIPPO Compound ID>  (455) 
37134

>  <name>  (455) 
SCUHBOVHTZOUMA-NSHDSACASA-N

>  <ref_pdb>  (455) 
z0628a

>  <ref_mols>  (455) 
z0628a,3vws-a

>  <csv_name>  (455) 
RdRp_knitwork_green_site_rna_tunnel_pure_split4000_batch003.csv

>  <fragmenstein_runtime>  (455) 
7.229099

>  <tags>  (455) 
['Fragmenstein placed']

>  <original ID>  (455) 
SCUHBOVHTZOUMA-NSHDSACASA-N

>  <fragmenstein_error>  (455) 
None

>  <original SMILES>  (455) 
C[C@@H](Cc1cnn(C)c1)NS(=O)(=O)c1ccc2occc2c1

>  <inchikey>  (455) 
SCUHBOVHTZOUMA-NSHDSACASA-N

>  <SLURM_JOB_NAME>  (455) 
BulkDock.place:Flavi_NS5_RdRp:RdRp_knitwork_green_site_rna_tunnel_pure_split4000_batch003

>  <scratch_subdir>  (455) 
/opt/xchem-fragalysis-2/maxwin/BulkDock/SCRATCH/217074/C37134-P150

>  <alias>  (455) 
None

>  <SLURM_JOB_ID>  (455) 
217074

>  <exports>  (455) 
['/opt/xchem-fragalysis-2/maxwin/BulkDock/OUTPUTS/RdRp_knitwork_green_site_rna_tunnel_pure_split4000_batch003_217074.sdf']

$$$$
148533
     RDKit          3D

 21 23  0  0  0  0  0  0  0  0999 V2000
  -26.9772  -35.1951  -18.0688 O   0  0  0  0  0  0  0  0  0  0  0  0
  -25.7892  -34.3751  -18.1407 S   0  0  0  0  0  0  0  0  0  0  0  0
  -24.6221  -34.7754  -18.8988 O   0  0  0  0  0  0  0  0  0  0  0  0
  -25.3013  -34.1123  -16.5643 N   0  0  0  0  0  0  0  0  0  0  0  0
  -24.0146  -33.5264  -16.2461 C   0  0  0  0  0  0  0  0  0  0  0  0
  -23.7028  -33.0159  -15.0151 C   0  0  0  0  0  0  0  0  0  0  0  0
  -22.4029  -32.4673  -15.1546 C   0  0  0  0  0  0  0  0  0  0  0  0
  -21.6933  -31.6851  -14.0895 C   0  0  0  0  0  0  0  0  0  0  0  0
  -21.5415  -32.3838  -12.9349 F   0  0  0  0  0  0  0  0  0  0  0  0
  -20.4599  -31.2325  -14.4441 F   0  0  0  0  0  0  0  0  0  0  0  0
  -21.9264  -32.6643  -16.3997 N   0  0  0  0  0  0  0  0  0  0  0  0
  -22.9026  -33.3597  -17.0252 N   0  0  0  0  0  0  0  0  0  0  0  0
  -26.2898  -32.7787  -18.7480 C   0  0  0  0  0  0  0  0  0  0  0  0
  -26.2684  -32.5824  -20.1362 C   0  0  0  0  0  0  0  0  0  0  0  0
  -26.5331  -31.3229  -20.6895 C   0  0  0  0  0  0  0  0  0  0  0  0
  -26.8060  -30.2945  -19.7934 C   0  0  0  0  0  0  0  0  0  0  0  0
  -27.0334  -28.9969  -20.1322 O   0  0  0  0  0  0  0  0  0  0  0  0
  -27.2512  -28.3204  -18.9755 C   0  0  0  0  0  0  0  0  0  0  0  0
  -27.1689  -29.1704  -17.8947 C   0  0  0  0  0  0  0  0  0  0  0  0
  -26.8656  -30.4576  -18.4138 C   0  0  0  0  0  0  0  0  0  0  0  0
  -26.6148  -31.7329  -17.8674 C   0  0  0  0  0  0  0  0  0  0  0  0
  1  2  2  0
  2  3  2  0
  2  4  1  0
  4  5  1  0
  5  6  2  0
  6  7  1  0
  7  8  1  0
  8  9  1  0
  8 10  1  0
  7 11  2  0
 11 12  1  0
  2 13  1  0
 13 14  2  0
 14 15  1  0
 15 16  2  0
 16 17  1  0
 17 18  1  0
 18 19  2  0
 19 20  1  0
 20 21  2  0
 12  5  1  0
 21 13  1  0
 20 16  1  0
M  END
>  <HIPPO Pose ID>  (456) 
148533

>  <fragmenstein_outcome>  (456) 
acceptable

>  <energy_score>  (456) 
-47.897723

>  <distance_score>  (456) 
0.756149

>  <fragmenstein_mode>  (456) 
expansion

>  <HIPPO Compound ID>  (456) 
37646

>  <name>  (456) 
LLNJXHLMXBJLTC-UHFFFAOYSA-N

>  <ref_pdb>  (456) 
z0628a

>  <ref_mols>  (456) 
z0628a,3vws-a

>  <csv_name>  (456) 
RdRp_knitwork_green_site_rna_tunnel_pure_split4000_batch003.csv

>  <fragmenstein_runtime>  (456) 
20.29729

>  <tags>  (456) 
['Fragmenstein placed']

>  <original ID>  (456) 
LLNJXHLMXBJLTC-UHFFFAOYSA-N

>  <fragmenstein_error>  (456) 
None

>  <original SMILES>  (456) 
O=S(=O)(Nc1cc(C(F)F)n[nH]1)c1ccc2occc2c1

>  <inchikey>  (456) 
LLNJXHLMXBJLTC-UHFFFAOYSA-N

>  <SLURM_JOB_NAME>  (456) 
BulkDock.place:Flavi_NS5_RdRp:RdRp_knitwork_green_site_rna_tunnel_pure_split4000_batch003

>  <scratch_subdir>  (456) 
/opt/xchem-fragalysis-2/maxwin/BulkDock/SCRATCH/217074/C37646-P150

>  <alias>  (456) 
None

>  <SLURM_JOB_ID>  (456) 
217074

>  <exports>  (456) 
['/opt/xchem-fragalysis-2/maxwin/BulkDock/OUTPUTS/RdRp_knitwork_green_site_rna_tunnel_pure_split4000_batch003_217074.sdf']

$$$$
148542
     RDKit          3D

 21 23  0  0  0  0  0  0  0  0999 V2000
  -26.8736  -34.7995  -17.9365 O   0  0  0  0  0  0  0  0  0  0  0  0
  -25.5482  -34.2309  -18.0735 S   0  0  0  0  0  0  0  0  0  0  0  0
  -24.5090  -34.9205  -18.8077 O   0  0  0  0  0  0  0  0  0  0  0  0
  -24.9744  -33.8593  -16.5558 N   0  0  0  0  0  0  0  0  0  0  0  0
  -23.6735  -33.2438  -16.3840 C   0  0  0  0  0  0  0  0  0  0  0  0
  -23.3262  -32.4954  -15.2943 C   0  0  0  0  0  0  0  0  0  0  0  0
  -22.0265  -32.0082  -15.5742 C   0  0  0  0  0  0  0  0  0  0  0  0
  -21.2551  -31.0447  -14.7179 C   0  0  0  0  0  0  0  0  0  0  0  0
  -21.9134  -30.8049  -13.5398 F   0  0  0  0  0  0  0  0  0  0  0  0
  -20.0324  -31.5233  -14.3683 F   0  0  0  0  0  0  0  0  0  0  0  0
  -21.5770  -32.4787  -16.7580 N   0  0  0  0  0  0  0  0  0  0  0  0
  -22.5682  -33.2933  -17.1828 N   0  0  0  0  0  0  0  0  0  0  0  0
  -25.7453  -32.6291  -18.8177 C   0  0  0  0  0  0  0  0  0  0  0  0
  -24.7512  -32.1456  -19.6798 C   0  0  0  0  0  0  0  0  0  0  0  0
  -24.8732  -30.8894  -20.2750 C   0  0  0  0  0  0  0  0  0  0  0  0
  -26.0358  -30.1838  -19.9890 C   0  0  0  0  0  0  0  0  0  0  0  0
  -26.3375  -28.9501  -20.4711 O   0  0  0  0  0  0  0  0  0  0  0  0
  -27.5653  -28.6394  -19.9949 C   0  0  0  0  0  0  0  0  0  0  0  0
  -28.0618  -29.6525  -19.2124 C   0  0  0  0  0  0  0  0  0  0  0  0
  -27.0631  -30.6544  -19.1777 C   0  0  0  0  0  0  0  0  0  0  0  0
  -26.9235  -31.9091  -18.5651 C   0  0  0  0  0  0  0  0  0  0  0  0
  1  2  2  0
  2  3  2  0
  2  4  1  0
  4  5  1  0
  5  6  2  0
  6  7  1  0
  7  8  1  0
  8  9  1  0
  8 10  1  0
  7 11  2  0
 11 12  1  0
  2 13  1  0
 13 14  2  0
 14 15  1  0
 15 16  2  0
 16 17  1  0
 17 18  1  0
 18 19  2  0
 19 20  1  0
 20 21  2  0
 12  5  1  0
 21 13  1  0
 20 16  1  0
M  END
>  <HIPPO Pose ID>  (457) 
148542

>  <fragmenstein_outcome>  (457) 
acceptable

>  <energy_score>  (457) 
-52.100947

>  <distance_score>  (457) 
0.891648

>  <fragmenstein_mode>  (457) 
expansion

>  <HIPPO Compound ID>  (457) 
37646

>  <name>  (457) 
LLNJXHLMXBJLTC-UHFFFAOYSA-N

>  <ref_pdb>  (457) 
3vws-a

>  <ref_mols>  (457) 
z0628a,3vws-a

>  <csv_name>  (457) 
RdRp_knitwork_green_site_rna_tunnel_pure_split4000_batch003.csv

>  <fragmenstein_runtime>  (457) 
11.275031

>  <tags>  (457) 
['Fragmenstein placed']

>  <original ID>  (457) 
LLNJXHLMXBJLTC-UHFFFAOYSA-N

>  <fragmenstein_error>  (457) 
None

>  <original SMILES>  (457) 
O=S(=O)(Nc1cc(C(F)F)n[nH]1)c1ccc2occc2c1

>  <inchikey>  (457) 
LLNJXHLMXBJLTC-UHFFFAOYSA-N

>  <SLURM_JOB_NAME>  (457) 
BulkDock.place:Flavi_NS5_RdRp:RdRp_knitwork_green_site_rna_tunnel_pure_split4000_batch003

>  <scratch_subdir>  (457) 
/opt/xchem-fragalysis-2/maxwin/BulkDock/SCRATCH/217074/C37646-P218

>  <alias>  (457) 
None

>  <SLURM_JOB_ID>  (457) 
217074

>  <exports>  (457) 
['/opt/xchem-fragalysis-2/maxwin/BulkDock/OUTPUTS/RdRp_knitwork_green_site_rna_tunnel_pure_split4000_batch003_217074.sdf']

$$$$
148970
     RDKit          3D

 21 23  0  0  0  0  0  0  0  0999 V2000
  -26.5264  -30.7449  -20.6154 C   0  0  0  0  0  0  0  0  0  0  0  0
  -26.6264  -29.7607  -19.4402 C   0  0  0  0  0  0  0  0  0  0  0  0
  -27.4702  -28.5763  -19.9907 C   0  0  0  0  0  0  0  0  0  0  0  0
  -25.2525  -29.1821  -19.0581 C   0  0  0  0  0  0  0  0  0  0  0  0
  -27.2381  -30.3153  -18.2132 N   0  0  0  0  0  0  0  0  0  0  0  0
  -27.7183  -29.3909  -17.3353 N   0  0  0  0  0  0  0  0  0  0  0  0
  -28.1273  -30.0878  -16.2872 C   0  0  0  0  0  0  0  0  0  0  0  0
  -27.9079  -31.4558  -16.4475 C   0  0  0  0  0  0  0  0  0  0  0  0
  -27.3040  -31.6008  -17.6869 C   0  0  0  0  0  0  0  0  0  0  0  0
  -26.8620  -32.8871  -18.3053 C   0  0  0  0  0  0  0  0  0  0  0  0
  -25.4291  -33.0942  -18.1716 N   0  0  0  0  0  0  0  0  0  0  0  0
  -25.0312  -33.7054  -16.9008 C   0  0  0  0  0  0  0  0  0  0  0  0
  -23.5987  -33.3506  -16.5551 C   0  0  0  0  0  0  0  0  0  0  0  0
  -22.5464  -33.6452  -17.4398 C   0  0  0  0  0  0  0  0  0  0  0  0
  -21.2281  -33.2461  -17.1840 C   0  0  0  0  0  0  0  0  0  0  0  0
  -21.0025  -32.6016  -15.9736 C   0  0  0  0  0  0  0  0  0  0  0  0
  -19.7986  -32.1474  -15.5285 O   0  0  0  0  0  0  0  0  0  0  0  0
  -19.9987  -31.6491  -14.2820 C   0  0  0  0  0  0  0  0  0  0  0  0
  -21.3250  -31.7478  -13.9283 C   0  0  0  0  0  0  0  0  0  0  0  0
  -21.9903  -32.3475  -15.0308 C   0  0  0  0  0  0  0  0  0  0  0  0
  -23.3163  -32.7090  -15.3310 C   0  0  0  0  0  0  0  0  0  0  0  0
  1  2  1  0
  2  3  1  0
  2  4  1  0
  2  5  1  0
  5  6  1  0
  6  7  2  0
  7  8  1  0
  8  9  2  0
  9 10  1  0
 10 11  1  0
 11 12  1  0
 12 13  1  0
 13 14  2  0
 14 15  1  0
 15 16  2  0
 16 17  1  0
 17 18  1  0
 18 19  2  0
 19 20  1  0
 20 21  2  0
  9  5  1  0
 21 13  1  0
 20 16  1  0
M  END
>  <HIPPO Pose ID>  (458) 
148970

>  <fragmenstein_outcome>  (458) 
acceptable

>  <energy_score>  (458) 
-36.641353

>  <distance_score>  (458) 
0.978245

>  <fragmenstein_mode>  (458) 
expansion

>  <HIPPO Compound ID>  (458) 
38819

>  <name>  (458) 
VDVVBEINRYZQFO-UHFFFAOYSA-N

>  <ref_pdb>  (458) 
z0628a

>  <ref_mols>  (458) 
z0628a,3vws-a

>  <csv_name>  (458) 
RdRp_knitwork_green_site_rna_tunnel_pure_split4000_batch003.csv

>  <fragmenstein_runtime>  (458) 
7.687227

>  <tags>  (458) 
['Fragmenstein placed']

>  <original ID>  (458) 
VDVVBEINRYZQFO-UHFFFAOYSA-N

>  <fragmenstein_error>  (458) 
None

>  <original SMILES>  (458) 
CC(C)(C)n1nccc1CNCc1ccc2occc2c1

>  <inchikey>  (458) 
VDVVBEINRYZQFO-UHFFFAOYSA-N

>  <SLURM_JOB_NAME>  (458) 
BulkDock.place:Flavi_NS5_RdRp:RdRp_knitwork_green_site_rna_tunnel_pure_split4000_batch003

>  <scratch_subdir>  (458) 
/opt/xchem-fragalysis-2/maxwin/BulkDock/SCRATCH/217074/C38819-P150

>  <alias>  (458) 
None

>  <SLURM_JOB_ID>  (458) 
217074

>  <exports>  (458) 
['/opt/xchem-fragalysis-2/maxwin/BulkDock/OUTPUTS/RdRp_knitwork_green_site_rna_tunnel_pure_split4000_batch003_217074.sdf']

$$$$
149097
     RDKit          3D

 24 26  0  0  0  0  0  0  0  0999 V2000
  -18.8440  -31.0868  -13.8262 C   0  0  0  0  0  0  0  0  0  0  0  0
  -19.8961  -31.5850  -14.6788 N   0  0  0  0  0  0  0  0  0  0  0  0
  -19.7782  -31.8964  -15.9952 C   0  0  0  0  0  0  0  0  0  0  0  0
  -20.9924  -32.4137  -16.3697 C   0  0  0  0  0  0  0  0  0  0  0  0
  -21.8178  -32.3223  -15.2162 C   0  0  0  0  0  0  0  0  0  0  0  0
  -23.2693  -32.7869  -15.0433 C   0  0  0  0  0  0  0  0  0  0  0  0
  -23.2267  -34.1957  -14.4182 C   0  0  0  0  0  0  0  0  0  0  0  0
  -24.0518  -31.8472  -14.1032 C   0  0  0  0  0  0  0  0  0  0  0  0
  -24.0129  -32.6923  -16.4351 C   0  0  0  0  0  0  0  0  0  0  0  0
  -23.7263  -31.7981  -17.1415 O   0  0  0  0  0  0  0  0  0  0  0  0
  -25.0405  -33.8662  -16.6446 N   0  0  0  0  0  0  0  0  0  0  0  0
  -25.9491  -34.2673  -17.9543 S   0  0  0  0  0  0  0  0  0  0  0  0
  -27.1318  -34.9309  -17.4541 O   0  0  0  0  0  0  0  0  0  0  0  0
  -25.0557  -34.9351  -18.8757 O   0  0  0  0  0  0  0  0  0  0  0  0
  -26.4519  -32.7234  -18.6683 C   0  0  0  0  0  0  0  0  0  0  0  0
  -26.3068  -32.5487  -20.0512 C   0  0  0  0  0  0  0  0  0  0  0  0
  -26.5373  -31.3017  -20.6458 C   0  0  0  0  0  0  0  0  0  0  0  0
  -26.8882  -30.2623  -19.7907 C   0  0  0  0  0  0  0  0  0  0  0  0
  -27.0785  -28.9676  -20.1638 O   0  0  0  0  0  0  0  0  0  0  0  0
  -27.3935  -28.2770  -19.0383 C   0  0  0  0  0  0  0  0  0  0  0  0
  -27.4195  -29.1157  -17.9460 C   0  0  0  0  0  0  0  0  0  0  0  0
  -27.0783  -30.4091  -18.4209 C   0  0  0  0  0  0  0  0  0  0  0  0
  -26.8857  -31.6764  -17.8382 C   0  0  0  0  0  0  0  0  0  0  0  0
  -21.1284  -31.8081  -14.1798 N   0  0  0  0  0  0  0  0  0  0  0  0
  1  2  1  0
  2  3  1  0
  3  4  2  0
  4  5  1  0
  5  6  1  0
  6  7  1  0
  6  8  1  0
  6  9  1  0
  9 10  2  0
  9 11  1  0
 11 12  1  0
 12 13  2  0
 12 14  2  0
 12 15  1  0
 15 16  2  0
 16 17  1  0
 17 18  2  0
 18 19  1  0
 19 20  1  0
 20 21  2  0
 21 22  1  0
 22 23  2  0
  5 24  2  0
 24  2  1  0
 23 15  1  0
 22 18  1  0
M  END
>  <HIPPO Pose ID>  (459) 
149097

>  <fragmenstein_outcome>  (459) 
acceptable

>  <energy_score>  (459) 
-36.791953

>  <distance_score>  (459) 
0.76508

>  <fragmenstein_mode>  (459) 
expansion

>  <HIPPO Compound ID>  (459) 
39282

>  <name>  (459) 
FJILQTKGRILJSP-UHFFFAOYSA-N

>  <ref_pdb>  (459) 
z0628a

>  <ref_mols>  (459) 
z0628a,3vws-a

>  <csv_name>  (459) 
RdRp_knitwork_green_site_rna_tunnel_pure_split4000_batch003.csv

>  <fragmenstein_runtime>  (459) 
8.507283

>  <tags>  (459) 
['Fragmenstein placed']

>  <original ID>  (459) 
FJILQTKGRILJSP-UHFFFAOYSA-N

>  <fragmenstein_error>  (459) 
None

>  <original SMILES>  (459) 
Cn1ccc(C(C)(C)C(=O)NS(=O)(=O)c2ccc3occc3c2)n1

>  <inchikey>  (459) 
FJILQTKGRILJSP-UHFFFAOYSA-N

>  <SLURM_JOB_NAME>  (459) 
BulkDock.place:Flavi_NS5_RdRp:RdRp_knitwork_green_site_rna_tunnel_pure_split4000_batch003

>  <scratch_subdir>  (459) 
/opt/xchem-fragalysis-2/maxwin/BulkDock/SCRATCH/217074/C39282-P150

>  <alias>  (459) 
None

>  <SLURM_JOB_ID>  (459) 
217074

>  <exports>  (459) 
['/opt/xchem-fragalysis-2/maxwin/BulkDock/OUTPUTS/RdRp_knitwork_green_site_rna_tunnel_pure_split4000_batch003_217074.sdf']

$$$$
149292
     RDKit          3D

 20 22  0  0  0  0  0  0  0  0999 V2000
  -24.6494  -33.1285  -23.2273 O   0  0  0  0  0  0  0  0  0  0  0  0
  -23.9063  -32.7612  -22.4108 C   0  0  0  0  0  0  0  0  0  0  0  0
  -23.7860  -31.3945  -21.7139 N   0  0  0  0  0  0  0  0  0  0  0  0
  -24.6162  -30.2197  -21.8069 C   0  0  0  0  0  0  0  0  0  0  0  0
  -25.1522  -29.7717  -20.4430 C   0  0  0  0  0  0  0  0  0  0  0  0
  -25.7340  -30.8589  -19.6748 N   0  0  0  0  0  0  0  0  0  0  0  0
  -25.0606  -31.6268  -18.7591 C   0  0  0  0  0  0  0  0  0  0  0  0
  -25.9275  -32.5908  -18.2938 C   0  0  0  0  0  0  0  0  0  0  0  0
  -27.1747  -32.3686  -18.9221 C   0  0  0  0  0  0  0  0  0  0  0  0
  -27.0334  -31.2766  -19.7494 C   0  0  0  0  0  0  0  0  0  0  0  0
  -22.8973  -33.6749  -21.8748 C   0  0  0  0  0  0  0  0  0  0  0  0
  -23.0602  -35.0468  -21.8008 C   0  0  0  0  0  0  0  0  0  0  0  0
  -22.0057  -35.6324  -21.1789 O   0  0  0  0  0  0  0  0  0  0  0  0
  -21.1286  -34.6440  -20.8689 C   0  0  0  0  0  0  0  0  0  0  0  0
  -19.9198  -34.8196  -20.1972 C   0  0  0  0  0  0  0  0  0  0  0  0
  -19.1476  -33.6703  -19.9867 C   0  0  0  0  0  0  0  0  0  0  0  0
  -19.5744  -32.4288  -20.4581 C   0  0  0  0  0  0  0  0  0  0  0  0
  -18.6417  -31.0160  -20.1515 Cl  0  0  0  0  0  0  0  0  0  0  0  0
  -20.7777  -32.2868  -21.1535 C   0  0  0  0  0  0  0  0  0  0  0  0
  -21.6001  -33.4181  -21.3264 C   0  0  0  0  0  0  0  0  0  0  0  0
  1  2  2  0
  2  3  1  0
  3  4  1  0
  4  5  1  0
  5  6  1  0
  6  7  1  0
  7  8  2  0
  8  9  1  0
  9 10  2  0
  2 11  1  0
 11 12  2  0
 12 13  1  0
 13 14  1  0
 14 15  2  0
 15 16  1  0
 16 17  2  0
 17 18  1  0
 17 19  1  0
 19 20  2  0
 10  6  1  0
 20 11  1  0
 20 14  1  0
M  END
>  <HIPPO Pose ID>  (460) 
149292

>  <fragmenstein_outcome>  (460) 
acceptable

>  <energy_score>  (460) 
-2.848642

>  <distance_score>  (460) 
0.856252

>  <fragmenstein_mode>  (460) 
expansion

>  <HIPPO Compound ID>  (460) 
44798

>  <name>  (460) 
PSZNMPPFOAHUKJ-UHFFFAOYSA-N

>  <ref_pdb>  (460) 
3vws-b

>  <ref_mols>  (460) 
d0472b,3vws-b

>  <csv_name>  (460) 
RdRp_knitwork_green_site_rna_tunnel_pure_split4000_batch014.csv

>  <fragmenstein_runtime>  (460) 
2.938869

>  <tags>  (460) 
['Fragmenstein placed']

>  <original ID>  (460) 
PSZNMPPFOAHUKJ-UHFFFAOYSA-N

>  <fragmenstein_error>  (460) 
None

>  <original SMILES>  (460) 
O=C(NCCn1cccc1)c1coc2ccc(Cl)cc12

>  <inchikey>  (460) 
PSZNMPPFOAHUKJ-UHFFFAOYSA-N

>  <SLURM_JOB_NAME>  (460) 
BulkDock.place:Flavi_NS5_RdRp:RdRp_knitwork_green_site_rna_tunnel_pure_split4000_batch014

>  <scratch_subdir>  (460) 
/opt/xchem-fragalysis-2/maxwin/BulkDock/SCRATCH/217085/C44798-P217

>  <alias>  (460) 
None

>  <SLURM_JOB_ID>  (460) 
217085

>  <exports>  (460) 
['/opt/xchem-fragalysis-2/maxwin/BulkDock/OUTPUTS/RdRp_knitwork_green_site_rna_tunnel_pure_split4000_batch014_217085.sdf']

$$$$
149310
     RDKit          3D

 17 18  0  0  0  0  0  0  0  0999 V2000
  -24.4318  -29.7672  -16.1130 C   0  0  0  0  0  0  0  0  0  0  0  0
  -25.5723  -30.7791  -16.1562 C   0  0  0  0  0  0  0  0  0  0  0  0
  -26.4966  -30.4770  -17.2613 N   0  0  0  0  0  0  0  0  0  0  0  0
  -27.5758  -29.5594  -16.9413 C   0  0  0  0  0  0  0  0  0  0  0  0
  -28.7607  -30.3036  -16.3365 C   0  0  0  0  0  0  0  0  0  0  0  0
  -26.1091  -30.8922  -18.5101 C   0  0  0  0  0  0  0  0  0  0  0  0
  -24.9717  -31.5487  -18.6737 N   0  0  0  0  0  0  0  0  0  0  0  0
  -24.7346  -31.6396  -19.9981 C   0  0  0  0  0  0  0  0  0  0  0  0
  -25.7489  -31.0492  -20.6971 C   0  0  0  0  0  0  0  0  0  0  0  0
  -25.7635  -30.9371  -22.1009 C   0  0  0  0  0  0  0  0  0  0  0  0
  -25.7762  -30.8199  -23.2544 N   0  0  0  0  0  0  0  0  0  0  0  0
  -26.7184  -30.6711  -19.7702 N   0  0  0  0  0  0  0  0  0  0  0  0
  -28.0446  -30.2299  -20.1097 C   0  0  0  0  0  0  0  0  0  0  0  0
  -28.5251  -29.7627  -21.3486 C   0  0  0  0  0  0  0  0  0  0  0  0
  -29.8713  -29.5671  -21.1564 C   0  0  0  0  0  0  0  0  0  0  0  0
  -30.1327  -29.9370  -19.8774 N   0  0  0  0  0  0  0  0  0  0  0  0
  -29.0388  -30.3339  -19.2230 N   0  0  0  0  0  0  0  0  0  0  0  0
  1  2  1  0
  2  3  1  0
  3  4  1  0
  4  5  1  0
  3  6  1  0
  6  7  2  0
  7  8  1  0
  8  9  2  0
  9 10  1  0
 10 11  3  0
  9 12  1  0
 12 13  1  0
 13 14  1  0
 14 15  2  0
 15 16  1  0
 16 17  1  0
 12  6  1  0
 17 13  2  0
M  END
>  <HIPPO Pose ID>  (461) 
149310

>  <fragmenstein_outcome>  (461) 
acceptable

>  <energy_score>  (461) 
-41.225254

>  <distance_score>  (461) 
0.836405

>  <fragmenstein_mode>  (461) 
expansion

>  <HIPPO Compound ID>  (461) 
44797

>  <name>  (461) 
WUPJRJUXZWKBHF-UHFFFAOYSA-N

>  <ref_pdb>  (461) 
z0521a

>  <ref_mols>  (461) 
z0521a,z0936a

>  <csv_name>  (461) 
RdRp_knitwork_green_site_rna_tunnel_pure_split4000_batch013.csv

>  <fragmenstein_runtime>  (461) 
2.628241

>  <tags>  (461) 
['Fragmenstein placed']

>  <original ID>  (461) 
WUPJRJUXZWKBHF-UHFFFAOYSA-N

>  <fragmenstein_error>  (461) 
None

>  <original SMILES>  (461) 
CCN(CC)c1ncc(C#N)n1-c1cc[nH]n1

>  <inchikey>  (461) 
WUPJRJUXZWKBHF-UHFFFAOYSA-N

>  <SLURM_JOB_NAME>  (461) 
BulkDock.place:Flavi_NS5_RdRp:RdRp_knitwork_green_site_rna_tunnel_pure_split4000_batch013

>  <scratch_subdir>  (461) 
/opt/xchem-fragalysis-2/maxwin/BulkDock/SCRATCH/217084/C44797-P141

>  <alias>  (461) 
None

>  <SLURM_JOB_ID>  (461) 
217084

>  <exports>  (461) 
['/opt/xchem-fragalysis-2/maxwin/BulkDock/OUTPUTS/RdRp_knitwork_green_site_rna_tunnel_pure_split4000_batch013_217084.sdf']

$$$$
149315
     RDKit          3D

 17 18  0  0  0  0  0  0  0  0999 V2000
  -24.4088  -30.0354  -16.3124 C   0  0  0  0  0  0  0  0  0  0  0  0
  -25.6111  -30.9400  -16.5281 C   0  0  0  0  0  0  0  0  0  0  0  0
  -26.5418  -30.4292  -17.5579 N   0  0  0  0  0  0  0  0  0  0  0  0
  -27.4507  -29.3764  -17.1078 C   0  0  0  0  0  0  0  0  0  0  0  0
  -28.6300  -29.9197  -16.3066 C   0  0  0  0  0  0  0  0  0  0  0  0
  -26.1576  -30.6080  -18.8738 C   0  0  0  0  0  0  0  0  0  0  0  0
  -24.9503  -31.0647  -19.1856 N   0  0  0  0  0  0  0  0  0  0  0  0
  -24.8904  -31.2170  -20.5329 C   0  0  0  0  0  0  0  0  0  0  0  0
  -26.0500  -30.7768  -21.1175 C   0  0  0  0  0  0  0  0  0  0  0  0
  -26.2658  -30.7290  -22.5150 C   0  0  0  0  0  0  0  0  0  0  0  0
  -26.4461  -30.6285  -23.6580 N   0  0  0  0  0  0  0  0  0  0  0  0
  -26.9230  -30.4222  -20.0778 N   0  0  0  0  0  0  0  0  0  0  0  0
  -28.3268  -30.1540  -20.2649 C   0  0  0  0  0  0  0  0  0  0  0  0
  -29.0332  -29.9831  -21.4751 C   0  0  0  0  0  0  0  0  0  0  0  0
  -30.3542  -29.8958  -21.1142 C   0  0  0  0  0  0  0  0  0  0  0  0
  -30.3778  -29.9990  -19.7627 N   0  0  0  0  0  0  0  0  0  0  0  0
  -29.1647  -30.1619  -19.2265 N   0  0  0  0  0  0  0  0  0  0  0  0
  1  2  1  0
  2  3  1  0
  3  4  1  0
  4  5  1  0
  3  6  1  0
  6  7  2  0
  7  8  1  0
  8  9  2  0
  9 10  1  0
 10 11  3  0
  9 12  1  0
 12 13  1  0
 13 14  1  0
 14 15  2  0
 15 16  1  0
 16 17  1  0
 12  6  1  0
 17 13  2  0
M  END
>  <HIPPO Pose ID>  (462) 
149315

>  <fragmenstein_outcome>  (462) 
acceptable

>  <energy_score>  (462) 
-41.259273

>  <distance_score>  (462) 
0.887032

>  <fragmenstein_mode>  (462) 
expansion

>  <HIPPO Compound ID>  (462) 
44797

>  <name>  (462) 
WUPJRJUXZWKBHF-UHFFFAOYSA-N

>  <ref_pdb>  (462) 
z0936a

>  <ref_mols>  (462) 
z0521a,z0936a

>  <csv_name>  (462) 
RdRp_knitwork_green_site_rna_tunnel_pure_split4000_batch013.csv

>  <fragmenstein_runtime>  (462) 
2.611968

>  <tags>  (462) 
['Fragmenstein placed']

>  <original ID>  (462) 
WUPJRJUXZWKBHF-UHFFFAOYSA-N

>  <fragmenstein_error>  (462) 
None

>  <original SMILES>  (462) 
CCN(CC)c1ncc(C#N)n1-c1cc[nH]n1

>  <inchikey>  (462) 
WUPJRJUXZWKBHF-UHFFFAOYSA-N

>  <SLURM_JOB_NAME>  (462) 
BulkDock.place:Flavi_NS5_RdRp:RdRp_knitwork_green_site_rna_tunnel_pure_split4000_batch013

>  <scratch_subdir>  (462) 
/opt/xchem-fragalysis-2/maxwin/BulkDock/SCRATCH/217084/C44797-P196

>  <alias>  (462) 
None

>  <SLURM_JOB_ID>  (462) 
217084

>  <exports>  (462) 
['/opt/xchem-fragalysis-2/maxwin/BulkDock/OUTPUTS/RdRp_knitwork_green_site_rna_tunnel_pure_split4000_batch013_217084.sdf']

$$$$
149663
     RDKit          3D

 21 23  0  0  0  0  0  0  0  0999 V2000
  -19.8319  -29.7602  -19.7193 C   0  0  0  0  0  0  0  0  0  0  0  0
  -18.9878  -30.8376  -20.3895 C   0  0  0  0  0  0  0  0  0  0  0  0
  -19.7070  -32.1489  -20.5707 C   0  0  0  0  0  0  0  0  0  0  0  0
  -19.2151  -33.3482  -20.0323 C   0  0  0  0  0  0  0  0  0  0  0  0
  -19.9009  -34.5663  -20.1887 C   0  0  0  0  0  0  0  0  0  0  0  0
  -21.1140  -34.5156  -20.8706 C   0  0  0  0  0  0  0  0  0  0  0  0
  -21.9397  -35.5652  -21.1296 O   0  0  0  0  0  0  0  0  0  0  0  0
  -23.0327  -35.0656  -21.7706 C   0  0  0  0  0  0  0  0  0  0  0  0
  -22.9404  -33.6935  -21.9029 C   0  0  0  0  0  0  0  0  0  0  0  0
  -23.9751  -32.8114  -22.4360 C   0  0  0  0  0  0  0  0  0  0  0  0
  -24.6799  -33.1656  -23.2921 O   0  0  0  0  0  0  0  0  0  0  0  0
  -23.8920  -31.4552  -21.7067 N   0  0  0  0  0  0  0  0  0  0  0  0
  -24.7218  -30.2837  -21.8137 C   0  0  0  0  0  0  0  0  0  0  0  0
  -25.2549  -29.8127  -20.4570 C   0  0  0  0  0  0  0  0  0  0  0  0
  -25.8166  -30.8892  -19.6618 N   0  0  0  0  0  0  0  0  0  0  0  0
  -27.1121  -31.3199  -19.7147 C   0  0  0  0  0  0  0  0  0  0  0  0
  -27.2336  -32.3961  -18.8643 C   0  0  0  0  0  0  0  0  0  0  0  0
  -25.9772  -32.5960  -18.2472 C   0  0  0  0  0  0  0  0  0  0  0  0
  -25.1251  -31.6325  -18.7400 C   0  0  0  0  0  0  0  0  0  0  0  0
  -21.6509  -33.3510  -21.3957 C   0  0  0  0  0  0  0  0  0  0  0  0
  -20.9004  -32.1653  -21.3013 C   0  0  0  0  0  0  0  0  0  0  0  0
  1  2  1  0
  2  3  1  0
  3  4  2  0
  4  5  1  0
  5  6  2  0
  6  7  1  0
  7  8  1  0
  8  9  2  0
  9 10  1  0
 10 11  2  0
 10 12  1  0
 12 13  1  0
 13 14  1  0
 14 15  1  0
 15 16  1  0
 16 17  2  0
 17 18  1  0
 18 19  2  0
  9 20  1  0
 20 21  2  0
 21  3  1  0
 20  6  1  0
 19 15  1  0
M  END
>  <HIPPO Pose ID>  (463) 
149663

>  <fragmenstein_outcome>  (463) 
acceptable

>  <energy_score>  (463) 
-13.576174

>  <distance_score>  (463) 
0.912367

>  <fragmenstein_mode>  (463) 
expansion

>  <HIPPO Compound ID>  (463) 
45626

>  <name>  (463) 
LUIFBLWYFLYKAI-UHFFFAOYSA-N

>  <ref_pdb>  (463) 
3vws-b

>  <ref_mols>  (463) 
d0472b,3vws-b

>  <csv_name>  (463) 
RdRp_knitwork_green_site_rna_tunnel_pure_split4000_batch014.csv

>  <fragmenstein_runtime>  (463) 
2.63869

>  <tags>  (463) 
['Fragmenstein placed']

>  <original ID>  (463) 
LUIFBLWYFLYKAI-UHFFFAOYSA-N

>  <fragmenstein_error>  (463) 
None

>  <original SMILES>  (463) 
CCc1ccc2occ(C(=O)NCCn3cccc3)c2c1

>  <inchikey>  (463) 
LUIFBLWYFLYKAI-UHFFFAOYSA-N

>  <SLURM_JOB_NAME>  (463) 
BulkDock.place:Flavi_NS5_RdRp:RdRp_knitwork_green_site_rna_tunnel_pure_split4000_batch014

>  <scratch_subdir>  (463) 
/opt/xchem-fragalysis-2/maxwin/BulkDock/SCRATCH/217085/C45626-P217

>  <alias>  (463) 
None

>  <SLURM_JOB_ID>  (463) 
217085

>  <exports>  (463) 
['/opt/xchem-fragalysis-2/maxwin/BulkDock/OUTPUTS/RdRp_knitwork_green_site_rna_tunnel_pure_split4000_batch014_217085.sdf']

$$$$
149853
     RDKit          3D

 26 29  0  0  0  0  0  0  0  0999 V2000
  -18.1328  -31.9071  -18.7551 C   0  0  0  0  0  0  0  0  0  0  0  0
  -18.7196  -33.1874  -18.9204 O   0  0  0  0  0  0  0  0  0  0  0  0
  -19.6604  -33.3098  -19.9096 C   0  0  0  0  0  0  0  0  0  0  0  0
  -20.0547  -32.2997  -20.7945 C   0  0  0  0  0  0  0  0  0  0  0  0
  -21.0481  -32.5275  -21.7634 C   0  0  0  0  0  0  0  0  0  0  0  0
  -21.6733  -33.7873  -21.8142 C   0  0  0  0  0  0  0  0  0  0  0  0
  -22.7111  -34.3941  -22.5890 C   0  0  0  0  0  0  0  0  0  0  0  0
  -23.5332  -33.7856  -23.6765 C   0  0  0  0  0  0  0  0  0  0  0  0
  -24.9058  -33.4096  -23.1149 C   0  0  0  0  0  0  0  0  0  0  0  0
  -25.8638  -34.0549  -23.2837 O   0  0  0  0  0  0  0  0  0  0  0  0
  -24.6907  -32.1365  -22.2564 N   0  0  0  0  0  0  0  0  0  0  0  0
  -25.5835  -31.4539  -21.3575 C   0  0  0  0  0  0  0  0  0  0  0  0
  -25.0005  -31.4946  -19.9531 C   0  0  0  0  0  0  0  0  0  0  0  0
  -25.6624  -30.6659  -18.8995 C   0  0  0  0  0  0  0  0  0  0  0  0
  -25.0265  -30.2903  -17.7293 C   0  0  0  0  0  0  0  0  0  0  0  0
  -25.9429  -29.7115  -16.8997 N   0  0  0  0  0  0  0  0  0  0  0  0
  -27.1787  -29.7011  -17.4990 C   0  0  0  0  0  0  0  0  0  0  0  0
  -28.4230  -29.3379  -16.9704 C   0  0  0  0  0  0  0  0  0  0  0  0
  -29.5448  -29.5162  -17.7788 C   0  0  0  0  0  0  0  0  0  0  0  0
  -29.4209  -29.9423  -19.0950 C   0  0  0  0  0  0  0  0  0  0  0  0
  -28.1679  -30.2830  -19.6131 C   0  0  0  0  0  0  0  0  0  0  0  0
  -27.0235  -30.2209  -18.7875 C   0  0  0  0  0  0  0  0  0  0  0  0
  -22.8504  -35.6742  -22.0864 C   0  0  0  0  0  0  0  0  0  0  0  0
  -21.9654  -35.9049  -21.0864 O   0  0  0  0  0  0  0  0  0  0  0  0
  -21.2560  -34.7593  -20.9131 C   0  0  0  0  0  0  0  0  0  0  0  0
  -20.2516  -34.5749  -19.9693 C   0  0  0  0  0  0  0  0  0  0  0  0
  1  2  1  0
  2  3  1  0
  3  4  2  0
  4  5  1  0
  5  6  2  0
  6  7  1  0
  7  8  1  0
  8  9  1  0
  9 10  2  0
  9 11  1  0
 11 12  1  0
 12 13  1  0
 13 14  1  0
 14 15  2  0
 15 16  1  0
 16 17  1  0
 17 18  2  0
 18 19  1  0
 19 20  2  0
 20 21  1  0
 21 22  2  0
  7 23  2  0
 23 24  1  0
 24 25  1  0
 25 26  2  0
 26  3  1  0
 25  6  1  0
 22 14  1  0
 22 17  1  0
M  END
>  <HIPPO Pose ID>  (464) 
149853

>  <fragmenstein_outcome>  (464) 
acceptable

>  <energy_score>  (464) 
-16.214591

>  <distance_score>  (464) 
0.776257

>  <fragmenstein_mode>  (464) 
expansion

>  <HIPPO Compound ID>  (464) 
38101

>  <name>  (464) 
LVBNYFPKXLRUBH-UHFFFAOYSA-N

>  <ref_pdb>  (464) 
z0041a

>  <ref_mols>  (464) 
z0041a,3vws-b

>  <csv_name>  (464) 
RdRp_knitwork_green_site_rna_tunnel_pure_split4000_batch005.csv

>  <fragmenstein_runtime>  (464) 
5.257154

>  <tags>  (464) 
['Fragmenstein placed']

>  <original ID>  (464) 
LVBNYFPKXLRUBH-UHFFFAOYSA-N

>  <fragmenstein_error>  (464) 
None

>  <original SMILES>  (464) 
COc1ccc2c(CC(=O)NCCc3c[nH]c4ccccc34)coc2c1

>  <inchikey>  (464) 
LVBNYFPKXLRUBH-UHFFFAOYSA-N

>  <SLURM_JOB_NAME>  (464) 
BulkDock.place:Flavi_NS5_RdRp:RdRp_knitwork_green_site_rna_tunnel_pure_split4000_batch005

>  <scratch_subdir>  (464) 
/opt/xchem-fragalysis-2/maxwin/BulkDock/SCRATCH/217076/C38101-P82

>  <alias>  (464) 
None

>  <SLURM_JOB_ID>  (464) 
217076

>  <exports>  (464) 
['/opt/xchem-fragalysis-2/maxwin/BulkDock/OUTPUTS/RdRp_knitwork_green_site_rna_tunnel_pure_split4000_batch005_217076.sdf']

$$$$
149908
     RDKit          3D

 27 30  0  0  0  0  0  0  0  0999 V2000
  -23.3814  -33.5564  -23.6764 C   0  0  0  0  0  0  0  0  0  0  0  0
  -22.6883  -34.1706  -22.5153 C   0  0  0  0  0  0  0  0  0  0  0  0
  -23.0628  -35.3130  -21.8221 C   0  0  0  0  0  0  0  0  0  0  0  0
  -24.2839  -36.0852  -21.8589 C   0  0  0  0  0  0  0  0  0  0  0  0
  -24.4120  -37.1268  -22.5003 O   0  0  0  0  0  0  0  0  0  0  0  0
  -25.4214  -35.5100  -20.9948 C   0  0  0  0  0  0  0  0  0  0  0  0
  -25.1631  -34.1517  -20.5906 O   0  0  0  0  0  0  0  0  0  0  0  0
  -25.8101  -33.1577  -21.2465 C   0  0  0  0  0  0  0  0  0  0  0  0
  -26.7632  -33.3259  -21.9957 O   0  0  0  0  0  0  0  0  0  0  0  0
  -25.1497  -31.8112  -21.0336 C   0  0  0  0  0  0  0  0  0  0  0  0
  -24.6690  -31.5543  -19.6219 C   0  0  0  0  0  0  0  0  0  0  0  0
  -25.5146  -30.7149  -18.7110 C   0  0  0  0  0  0  0  0  0  0  0  0
  -25.0298  -30.2652  -17.4947 C   0  0  0  0  0  0  0  0  0  0  0  0
  -26.0436  -29.6696  -16.8070 N   0  0  0  0  0  0  0  0  0  0  0  0
  -27.1999  -29.7129  -17.5443 C   0  0  0  0  0  0  0  0  0  0  0  0
  -28.4992  -29.3435  -17.1757 C   0  0  0  0  0  0  0  0  0  0  0  0
  -29.5206  -29.5732  -18.0947 C   0  0  0  0  0  0  0  0  0  0  0  0
  -29.2431  -30.0512  -19.3671 C   0  0  0  0  0  0  0  0  0  0  0  0
  -27.9374  -30.4092  -19.7215 C   0  0  0  0  0  0  0  0  0  0  0  0
  -26.8894  -30.2939  -18.7796 C   0  0  0  0  0  0  0  0  0  0  0  0
  -22.1441  -35.6139  -20.8594 O   0  0  0  0  0  0  0  0  0  0  0  0
  -21.2311  -34.6077  -20.8549 C   0  0  0  0  0  0  0  0  0  0  0  0
  -20.1501  -34.5067  -19.9830 C   0  0  0  0  0  0  0  0  0  0  0  0
  -19.3739  -33.3492  -20.0847 C   0  0  0  0  0  0  0  0  0  0  0  0
  -19.6765  -32.3613  -21.0239 C   0  0  0  0  0  0  0  0  0  0  0  0
  -20.7427  -32.5134  -21.9214 C   0  0  0  0  0  0  0  0  0  0  0  0
  -21.5408  -33.6681  -21.8305 C   0  0  0  0  0  0  0  0  0  0  0  0
  1  2  1  0
  2  3  2  0
  3  4  1  0
  4  5  2  0
  4  6  1  0
  6  7  1  0
  7  8  1  0
  8  9  2  0
  8 10  1  0
 10 11  1  0
 11 12  1  0
 12 13  2  0
 13 14  1  0
 14 15  1  0
 15 16  2  0
 16 17  1  0
 17 18  2  0
 18 19  1  0
 19 20  2  0
  3 21  1  0
 21 22  1  0
 22 23  2  0
 23 24  1  0
 24 25  2  0
 25 26  1  0
 26 27  2  0
 27  2  1  0
 20 12  1  0
 27 22  1  0
 20 15  1  0
M  END
>  <HIPPO Pose ID>  (465) 
149908

>  <fragmenstein_outcome>  (465) 
acceptable

>  <energy_score>  (465) 
-22.175309

>  <distance_score>  (465) 
0.750764

>  <fragmenstein_mode>  (465) 
expansion

>  <HIPPO Compound ID>  (465) 
38698

>  <name>  (465) 
HCJYGLLYKPHXMZ-UHFFFAOYSA-N

>  <ref_pdb>  (465) 
z0041a

>  <ref_mols>  (465) 
z0041a,3vws-b

>  <csv_name>  (465) 
RdRp_knitwork_green_site_rna_tunnel_pure_split4000_batch005.csv

>  <fragmenstein_runtime>  (465) 
4.229935

>  <tags>  (465) 
['Fragmenstein placed']

>  <original ID>  (465) 
HCJYGLLYKPHXMZ-UHFFFAOYSA-N

>  <fragmenstein_error>  (465) 
None

>  <original SMILES>  (465) 
Cc1c(C(=O)COC(=O)CCc2c[nH]c3ccccc23)oc2ccccc12

>  <inchikey>  (465) 
HCJYGLLYKPHXMZ-UHFFFAOYSA-N

>  <SLURM_JOB_NAME>  (465) 
BulkDock.place:Flavi_NS5_RdRp:RdRp_knitwork_green_site_rna_tunnel_pure_split4000_batch005

>  <scratch_subdir>  (465) 
/opt/xchem-fragalysis-2/maxwin/BulkDock/SCRATCH/217076/C38698-P82

>  <alias>  (465) 
None

>  <SLURM_JOB_ID>  (465) 
217076

>  <exports>  (465) 
['/opt/xchem-fragalysis-2/maxwin/BulkDock/OUTPUTS/RdRp_knitwork_green_site_rna_tunnel_pure_split4000_batch005_217076.sdf']

$$$$
149970
     RDKit          3D

 26 29  0  0  0  0  0  0  0  0999 V2000
  -23.3233  -33.0672  -23.5185 C   0  0  0  0  0  0  0  0  0  0  0  0
  -22.7055  -33.8155  -22.3939 C   0  0  0  0  0  0  0  0  0  0  0  0
  -23.1864  -34.9472  -21.7539 C   0  0  0  0  0  0  0  0  0  0  0  0
  -24.4602  -35.6182  -21.8218 C   0  0  0  0  0  0  0  0  0  0  0  0
  -24.6220  -36.7363  -22.3057 O   0  0  0  0  0  0  0  0  0  0  0  0
  -25.6115  -34.8407  -21.1528 C   0  0  0  0  0  0  0  0  0  0  0  0
  -25.9511  -33.5784  -21.7663 O   0  0  0  0  0  0  0  0  0  0  0  0
  -25.6566  -32.3171  -21.3620 C   0  0  0  0  0  0  0  0  0  0  0  0
  -25.9817  -31.3819  -22.0950 O   0  0  0  0  0  0  0  0  0  0  0  0
  -24.8624  -32.0794  -20.1027 C   0  0  0  0  0  0  0  0  0  0  0  0
  -25.4265  -31.0966  -19.1011 C   0  0  0  0  0  0  0  0  0  0  0  0
  -24.7242  -30.7110  -17.9696 C   0  0  0  0  0  0  0  0  0  0  0  0
  -25.5488  -29.9851  -17.1578 N   0  0  0  0  0  0  0  0  0  0  0  0
  -26.7954  -29.8876  -17.7245 C   0  0  0  0  0  0  0  0  0  0  0  0
  -27.9809  -29.3691  -17.1873 C   0  0  0  0  0  0  0  0  0  0  0  0
  -29.1347  -29.4408  -17.9658 C   0  0  0  0  0  0  0  0  0  0  0  0
  -29.0885  -29.9256  -19.2654 C   0  0  0  0  0  0  0  0  0  0  0  0
  -27.8941  -30.4352  -19.7887 C   0  0  0  0  0  0  0  0  0  0  0  0
  -26.7262  -30.4783  -18.9915 C   0  0  0  0  0  0  0  0  0  0  0  0
  -22.2796  -35.3996  -20.8387 O   0  0  0  0  0  0  0  0  0  0  0  0
  -21.2639  -34.4983  -20.8056 C   0  0  0  0  0  0  0  0  0  0  0  0
  -20.1574  -34.5604  -19.9632 C   0  0  0  0  0  0  0  0  0  0  0  0
  -19.2683  -33.4840  -20.0251 C   0  0  0  0  0  0  0  0  0  0  0  0
  -19.4891  -32.4172  -20.8990 C   0  0  0  0  0  0  0  0  0  0  0  0
  -20.5865  -32.4072  -21.7706 C   0  0  0  0  0  0  0  0  0  0  0  0
  -21.4973  -33.4765  -21.7159 C   0  0  0  0  0  0  0  0  0  0  0  0
  1  2  1  0
  2  3  2  0
  3  4  1  0
  4  5  2  0
  4  6  1  0
  6  7  1  0
  7  8  1  0
  8  9  2  0
  8 10  1  0
 10 11  1  0
 11 12  2  0
 12 13  1  0
 13 14  1  0
 14 15  2  0
 15 16  1  0
 16 17  2  0
 17 18  1  0
 18 19  2  0
  3 20  1  0
 20 21  1  0
 21 22  2  0
 22 23  1  0
 23 24  2  0
 24 25  1  0
 25 26  2  0
 26  2  1  0
 19 11  1  0
 26 21  1  0
 19 14  1  0
M  END
>  <HIPPO Pose ID>  (466) 
149970

>  <fragmenstein_outcome>  (466) 
acceptable

>  <energy_score>  (466) 
-19.856125

>  <distance_score>  (466) 
0.953269

>  <fragmenstein_mode>  (466) 
expansion

>  <HIPPO Compound ID>  (466) 
39019

>  <name>  (466) 
JHTIIBGUYBKPKT-UHFFFAOYSA-N

>  <ref_pdb>  (466) 
z0041a

>  <ref_mols>  (466) 
z0041a,3vws-b

>  <csv_name>  (466) 
RdRp_knitwork_green_site_rna_tunnel_pure_split4000_batch005.csv

>  <fragmenstein_runtime>  (466) 
4.499474

>  <tags>  (466) 
['Fragmenstein placed']

>  <original ID>  (466) 
JHTIIBGUYBKPKT-UHFFFAOYSA-N

>  <fragmenstein_error>  (466) 
None

>  <original SMILES>  (466) 
Cc1c(C(=O)COC(=O)Cc2c[nH]c3ccccc23)oc2ccccc12

>  <inchikey>  (466) 
JHTIIBGUYBKPKT-UHFFFAOYSA-N

>  <SLURM_JOB_NAME>  (466) 
BulkDock.place:Flavi_NS5_RdRp:RdRp_knitwork_green_site_rna_tunnel_pure_split4000_batch005

>  <scratch_subdir>  (466) 
/opt/xchem-fragalysis-2/maxwin/BulkDock/SCRATCH/217076/C39019-P82

>  <alias>  (466) 
None

>  <SLURM_JOB_ID>  (466) 
217076

>  <exports>  (466) 
['/opt/xchem-fragalysis-2/maxwin/BulkDock/OUTPUTS/RdRp_knitwork_green_site_rna_tunnel_pure_split4000_batch005_217076.sdf']

$$$$
150526
     RDKit          3D

 23 26  0  0  0  0  0  0  0  0999 V2000
  -29.6881  -30.1783  -21.1798 C   0  0  0  0  0  0  0  0  0  0  0  0
  -29.1589  -30.1306  -19.8370 N   0  0  0  0  0  0  0  0  0  0  0  0
  -29.9361  -29.8500  -18.7493 C   0  0  0  0  0  0  0  0  0  0  0  0
  -29.1408  -29.8576  -17.6313 C   0  0  0  0  0  0  0  0  0  0  0  0
  -27.8327  -30.2157  -18.0448 C   0  0  0  0  0  0  0  0  0  0  0  0
  -26.6187  -30.4046  -17.3577 C   0  0  0  0  0  0  0  0  0  0  0  0
  -25.4894  -30.8221  -18.0711 C   0  0  0  0  0  0  0  0  0  0  0  0
  -25.5597  -31.0422  -19.4517 C   0  0  0  0  0  0  0  0  0  0  0  0
  -24.3334  -31.4780  -20.1829 C   0  0  0  0  0  0  0  0  0  0  0  0
  -23.3115  -31.0598  -19.8164 O   0  0  0  0  0  0  0  0  0  0  0  0
  -24.6680  -32.3888  -21.3783 N   0  0  0  0  0  0  0  0  0  0  0  0
  -23.8285  -32.8981  -22.4270 C   0  0  0  0  0  0  0  0  0  0  0  0
  -22.8458  -33.8344  -21.8405 C   0  0  0  0  0  0  0  0  0  0  0  0
  -22.9863  -35.1901  -21.6208 C   0  0  0  0  0  0  0  0  0  0  0  0
  -21.8904  -35.6988  -21.0004 O   0  0  0  0  0  0  0  0  0  0  0  0
  -21.0201  -34.6656  -20.8204 C   0  0  0  0  0  0  0  0  0  0  0  0
  -19.7763  -34.7461  -20.1971 C   0  0  0  0  0  0  0  0  0  0  0  0
  -19.0456  -33.5575  -20.0958 C   0  0  0  0  0  0  0  0  0  0  0  0
  -19.5515  -32.3572  -20.5971 C   0  0  0  0  0  0  0  0  0  0  0  0
  -20.7973  -32.3119  -21.2339 C   0  0  0  0  0  0  0  0  0  0  0  0
  -21.5511  -33.4954  -21.3419 C   0  0  0  0  0  0  0  0  0  0  0  0
  -26.7385  -30.7780  -20.1605 C   0  0  0  0  0  0  0  0  0  0  0  0
  -27.8712  -30.3960  -19.4326 C   0  0  0  0  0  0  0  0  0  0  0  0
  1  2  1  0
  2  3  1  0
  3  4  2  0
  4  5  1  0
  5  6  2  0
  6  7  1  0
  7  8  2  0
  8  9  1  0
  9 10  2  0
  9 11  1  0
 11 12  1  0
 12 13  1  0
 13 14  2  0
 14 15  1  0
 15 16  1  0
 16 17  2  0
 17 18  1  0
 18 19  2  0
 19 20  1  0
 20 21  2  0
  8 22  1  0
 22 23  2  0
 23  2  1  0
 23  5  1  0
 21 13  1  0
 21 16  1  0
M  END
>  <HIPPO Pose ID>  (467) 
150526

>  <fragmenstein_outcome>  (467) 
acceptable

>  <energy_score>  (467) 
-8.623005

>  <distance_score>  (467) 
0.801514

>  <fragmenstein_mode>  (467) 
expansion

>  <HIPPO Compound ID>  (467) 
35697

>  <name>  (467) 
CSEUHJUMBDELKB-UHFFFAOYSA-N

>  <ref_pdb>  (467) 
z0107a

>  <ref_mols>  (467) 
z0107a,3vws-b

>  <csv_name>  (467) 
RdRp_knitwork_green_site_rna_tunnel_pure_split4000_batch008.csv

>  <fragmenstein_runtime>  (467) 
3.466035

>  <tags>  (467) 
['Fragmenstein placed']

>  <original ID>  (467) 
CSEUHJUMBDELKB-UHFFFAOYSA-N

>  <fragmenstein_error>  (467) 
None

>  <original SMILES>  (467) 
Cn1ccc2ccc(C(=O)NCc3coc4ccccc34)cc21

>  <inchikey>  (467) 
CSEUHJUMBDELKB-UHFFFAOYSA-N

>  <SLURM_JOB_NAME>  (467) 
BulkDock.place:Flavi_NS5_RdRp:RdRp_knitwork_green_site_rna_tunnel_pure_split4000_batch008

>  <scratch_subdir>  (467) 
/opt/xchem-fragalysis-2/maxwin/BulkDock/SCRATCH/217079/C35697-P86

>  <alias>  (467) 
None

>  <SLURM_JOB_ID>  (467) 
217079

>  <exports>  (467) 
['/opt/xchem-fragalysis-2/maxwin/BulkDock/OUTPUTS/RdRp_knitwork_green_site_rna_tunnel_pure_split4000_batch008_217079.sdf']

$$$$
150601
     RDKit          3D

 27 30  0  0  0  0  0  0  0  0999 V2000
  -17.7101  -32.3845  -18.8472 C   0  0  0  0  0  0  0  0  0  0  0  0
  -18.5548  -33.5169  -18.9877 O   0  0  0  0  0  0  0  0  0  0  0  0
  -19.5391  -33.4373  -19.9397 C   0  0  0  0  0  0  0  0  0  0  0  0
  -19.8642  -32.2961  -20.6809 C   0  0  0  0  0  0  0  0  0  0  0  0
  -20.8961  -32.3195  -21.6339 C   0  0  0  0  0  0  0  0  0  0  0  0
  -21.6253  -33.5065  -21.8218 C   0  0  0  0  0  0  0  0  0  0  0  0
  -22.7093  -33.9178  -22.6575 C   0  0  0  0  0  0  0  0  0  0  0  0
  -23.4127  -33.0952  -23.6898 C   0  0  0  0  0  0  0  0  0  0  0  0
  -24.3584  -32.0858  -23.0796 C   0  0  0  0  0  0  0  0  0  0  0  0
  -24.3640  -30.8861  -23.3286 O   0  0  0  0  0  0  0  0  0  0  0  0
  -25.2418  -32.6961  -22.2386 O   0  0  0  0  0  0  0  0  0  0  0  0
  -25.9406  -31.8007  -21.3730 C   0  0  0  0  0  0  0  0  0  0  0  0
  -25.0745  -31.3326  -20.2038 C   0  0  0  0  0  0  0  0  0  0  0  0
  -23.8624  -31.5530  -20.1910 O   0  0  0  0  0  0  0  0  0  0  0  0
  -25.7061  -30.6439  -19.0750 C   0  0  0  0  0  0  0  0  0  0  0  0
  -25.0159  -30.3397  -17.9128 C   0  0  0  0  0  0  0  0  0  0  0  0
  -25.8852  -29.8029  -17.0094 N   0  0  0  0  0  0  0  0  0  0  0  0
  -27.1473  -29.7488  -17.5511 C   0  0  0  0  0  0  0  0  0  0  0  0
  -28.3584  -29.3825  -16.9518 C   0  0  0  0  0  0  0  0  0  0  0  0
  -29.5196  -29.5069  -17.7129 C   0  0  0  0  0  0  0  0  0  0  0  0
  -29.4652  -29.8829  -19.0493 C   0  0  0  0  0  0  0  0  0  0  0  0
  -28.2438  -30.2135  -19.6429 C   0  0  0  0  0  0  0  0  0  0  0  0
  -27.0607  -30.2110  -18.8691 C   0  0  0  0  0  0  0  0  0  0  0  0
  -22.9644  -35.2307  -22.3082 C   0  0  0  0  0  0  0  0  0  0  0  0
  -22.1055  -35.6582  -21.3466 O   0  0  0  0  0  0  0  0  0  0  0  0
  -21.2912  -34.6095  -21.0480 C   0  0  0  0  0  0  0  0  0  0  0  0
  -20.2582  -34.6257  -20.1146 C   0  0  0  0  0  0  0  0  0  0  0  0
  1  2  1  0
  2  3  1  0
  3  4  2  0
  4  5  1  0
  5  6  2  0
  6  7  1  0
  7  8  1  0
  8  9  1  0
  9 10  2  0
  9 11  1  0
 11 12  1  0
 12 13  1  0
 13 14  2  0
 13 15  1  0
 15 16  2  0
 16 17  1  0
 17 18  1  0
 18 19  2  0
 19 20  1  0
 20 21  2  0
 21 22  1  0
 22 23  2  0
  7 24  2  0
 24 25  1  0
 25 26  1  0
 26 27  2  0
 27  3  1  0
 26  6  1  0
 23 15  1  0
 23 18  1  0
M  END
>  <HIPPO Pose ID>  (468) 
150601

>  <fragmenstein_outcome>  (468) 
acceptable

>  <energy_score>  (468) 
-44.995366

>  <distance_score>  (468) 
0.750109

>  <fragmenstein_mode>  (468) 
expansion

>  <HIPPO Compound ID>  (468) 
40809

>  <name>  (468) 
XEIJGFZAGAICMH-UHFFFAOYSA-N

>  <ref_pdb>  (468) 
z0041a

>  <ref_mols>  (468) 
z0041a,3vws-b

>  <csv_name>  (468) 
RdRp_knitwork_green_site_rna_tunnel_pure_split4000_batch005.csv

>  <fragmenstein_runtime>  (468) 
6.151864

>  <tags>  (468) 
['Fragmenstein placed']

>  <original ID>  (468) 
XEIJGFZAGAICMH-UHFFFAOYSA-N

>  <fragmenstein_error>  (468) 
None

>  <original SMILES>  (468) 
COc1ccc2c(CC(=O)OCC(=O)c3c[nH]c4ccccc34)coc2c1

>  <inchikey>  (468) 
XEIJGFZAGAICMH-UHFFFAOYSA-N

>  <SLURM_JOB_NAME>  (468) 
BulkDock.place:Flavi_NS5_RdRp:RdRp_knitwork_green_site_rna_tunnel_pure_split4000_batch005

>  <scratch_subdir>  (468) 
/opt/xchem-fragalysis-2/maxwin/BulkDock/SCRATCH/217076/C40809-P82

>  <alias>  (468) 
None

>  <SLURM_JOB_ID>  (468) 
217076

>  <exports>  (468) 
['/opt/xchem-fragalysis-2/maxwin/BulkDock/OUTPUTS/RdRp_knitwork_green_site_rna_tunnel_pure_split4000_batch005_217076.sdf']

$$$$
150607
     RDKit          3D

 22 25  0  0  0  0  0  0  0  0999 V2000
  -26.7358  -31.0575  -22.1334 O   0  0  0  0  0  0  0  0  0  0  0  0
  -25.9974  -31.3706  -21.2871 C   0  0  0  0  0  0  0  0  0  0  0  0
  -24.7319  -32.2414  -21.3407 N   0  0  0  0  0  0  0  0  0  0  0  0
  -24.1582  -32.9890  -22.4255 C   0  0  0  0  0  0  0  0  0  0  0  0
  -23.0800  -33.8486  -21.8826 C   0  0  0  0  0  0  0  0  0  0  0  0
  -23.1126  -35.2162  -21.6916 C   0  0  0  0  0  0  0  0  0  0  0  0
  -21.9693  -35.6551  -21.1053 O   0  0  0  0  0  0  0  0  0  0  0  0
  -21.1721  -34.5666  -20.9222 C   0  0  0  0  0  0  0  0  0  0  0  0
  -19.9103  -34.5709  -20.3302 C   0  0  0  0  0  0  0  0  0  0  0  0
  -19.2645  -33.3350  -20.2187 C   0  0  0  0  0  0  0  0  0  0  0  0
  -19.8669  -32.1648  -20.6843 C   0  0  0  0  0  0  0  0  0  0  0  0
  -21.1318  -32.1960  -21.2864 C   0  0  0  0  0  0  0  0  0  0  0  0
  -21.8019  -33.4266  -21.4020 C   0  0  0  0  0  0  0  0  0  0  0  0
  -26.2706  -30.8675  -19.8898 C   0  0  0  0  0  0  0  0  0  0  0  0
  -25.2932  -30.7108  -18.8867 C   0  0  0  0  0  0  0  0  0  0  0  0
  -25.6265  -30.2654  -17.6040 C   0  0  0  0  0  0  0  0  0  0  0  0
  -26.9502  -29.9585  -17.2755 C   0  0  0  0  0  0  0  0  0  0  0  0
  -27.9447  -30.0638  -18.2655 C   0  0  0  0  0  0  0  0  0  0  0  0
  -29.3463  -29.8276  -18.2841 C   0  0  0  0  0  0  0  0  0  0  0  0
  -29.7966  -30.0618  -19.5632 C   0  0  0  0  0  0  0  0  0  0  0  0
  -28.7240  -30.4409  -20.3198 N   0  0  0  0  0  0  0  0  0  0  0  0
  -27.5827  -30.4895  -19.5442 C   0  0  0  0  0  0  0  0  0  0  0  0
  1  2  2  0
  2  3  1  0
  3  4  1  0
  4  5  1  0
  5  6  2  0
  6  7  1  0
  7  8  1  0
  8  9  2  0
  9 10  1  0
 10 11  2  0
 11 12  1  0
 12 13  2  0
  2 14  1  0
 14 15  2  0
 15 16  1  0
 16 17  2  0
 17 18  1  0
 18 19  1  0
 19 20  2  0
 20 21  1  0
 21 22  1  0
 13  5  1  0
 22 14  1  0
 13  8  1  0
 22 18  2  0
M  END
>  <HIPPO Pose ID>  (469) 
150607

>  <fragmenstein_outcome>  (469) 
acceptable

>  <energy_score>  (469) 
-20.739881

>  <distance_score>  (469) 
0.695661

>  <fragmenstein_mode>  (469) 
expansion

>  <HIPPO Compound ID>  (469) 
35941

>  <name>  (469) 
GXURJFQNMZPNAK-UHFFFAOYSA-N

>  <ref_pdb>  (469) 
z0107a

>  <ref_mols>  (469) 
z0107a,3vws-b

>  <csv_name>  (469) 
RdRp_knitwork_green_site_rna_tunnel_pure_split4000_batch008.csv

>  <fragmenstein_runtime>  (469) 
2.193483

>  <tags>  (469) 
['Fragmenstein placed']

>  <original ID>  (469) 
GXURJFQNMZPNAK-UHFFFAOYSA-N

>  <fragmenstein_error>  (469) 
None

>  <original SMILES>  (469) 
O=C(NCc1coc2ccccc12)c1cccc2cc[nH]c12

>  <inchikey>  (469) 
GXURJFQNMZPNAK-UHFFFAOYSA-N

>  <SLURM_JOB_NAME>  (469) 
BulkDock.place:Flavi_NS5_RdRp:RdRp_knitwork_green_site_rna_tunnel_pure_split4000_batch008

>  <scratch_subdir>  (469) 
/opt/xchem-fragalysis-2/maxwin/BulkDock/SCRATCH/217079/C35941-P86

>  <alias>  (469) 
None

>  <SLURM_JOB_ID>  (469) 
217079

>  <exports>  (469) 
['/opt/xchem-fragalysis-2/maxwin/BulkDock/OUTPUTS/RdRp_knitwork_green_site_rna_tunnel_pure_split4000_batch008_217079.sdf']

$$$$
150622
     RDKit          3D

 22 24  0  0  0  0  0  0  0  0999 V2000
  -22.4766  -33.9892  -17.2917 C   0  0  0  0  0  0  0  0  0  0  0  0
  -23.6319  -33.5057  -16.6183 O   0  0  0  0  0  0  0  0  0  0  0  0
  -24.8230  -34.2165  -16.9988 C   0  0  0  0  0  0  0  0  0  0  0  0
  -25.4107  -33.7487  -18.2884 C   0  0  0  0  0  0  0  0  0  0  0  0
  -25.4726  -34.5183  -19.3850 N   0  0  0  0  0  0  0  0  0  0  0  0
  -26.0462  -33.6708  -20.3411 O   0  0  0  0  0  0  0  0  0  0  0  0
  -26.2595  -32.4694  -19.7226 C   0  0  0  0  0  0  0  0  0  0  0  0
  -26.8978  -31.3845  -20.5345 C   0  0  2  0  0  0  0  0  0  0  0  0
  -26.1918  -31.0960  -21.8513 C   0  0  0  0  0  0  0  0  0  0  0  0
  -26.8643  -30.1775  -19.7590 O   0  0  0  0  0  0  0  0  0  0  0  0
  -28.1265  -29.7366  -19.5102 C   0  0  0  0  0  0  0  0  0  0  0  0
  -28.8565  -29.2944  -20.3879 O   0  0  0  0  0  0  0  0  0  0  0  0
  -28.4661  -29.9666  -18.1336 C   0  0  0  0  0  0  0  0  0  0  0  0
  -29.6960  -30.1008  -17.5203 C   0  0  0  0  0  0  0  0  0  0  0  0
  -29.4476  -30.6261  -16.2285 C   0  0  0  0  0  0  0  0  0  0  0  0
  -30.2442  -31.1073  -15.1753 C   0  0  0  0  0  0  0  0  0  0  0  0
  -29.6128  -31.6991  -14.0735 C   0  0  0  0  0  0  0  0  0  0  0  0
  -28.2203  -31.8024  -14.0146 C   0  0  0  0  0  0  0  0  0  0  0  0
  -27.4082  -31.2816  -15.0289 C   0  0  0  0  0  0  0  0  0  0  0  0
  -28.0669  -30.7145  -16.1155 C   0  0  0  0  0  0  0  0  0  0  0  0
  -27.4698  -30.2436  -17.2392 O   0  0  0  0  0  0  0  0  0  0  0  0
  -25.9040  -32.4801  -18.4567 N   0  0  0  0  0  0  0  0  0  0  0  0
  1  2  1  0
  2  3  1  0
  3  4  1  0
  4  5  2  0
  5  6  1  0
  6  7  1  0
  7  8  1  0
  8  9  1  6
  8 10  1  0
 10 11  1  0
 11 12  2  0
 11 13  1  0
 13 14  2  0
 14 15  1  0
 15 16  2  0
 16 17  1  0
 17 18  2  0
 18 19  1  0
 19 20  2  0
 20 21  1  0
  7 22  2  0
 22  4  1  0
 21 13  1  0
 20 15  1  0
M  END
>  <HIPPO Pose ID>  (470) 
150622

>  <fragmenstein_outcome>  (470) 
acceptable

>  <energy_score>  (470) 
-36.889174

>  <distance_score>  (470) 
0.996191

>  <fragmenstein_mode>  (470) 
expansion

>  <HIPPO Compound ID>  (470) 
43131

>  <name>  (470) 
XPRJREUJBZSEDV-VIFPVBQESA-N

>  <ref_pdb>  (470) 
z0628a

>  <ref_mols>  (470) 
z0628a,3vws-a

>  <csv_name>  (470) 
RdRp_knitwork_green_site_rna_tunnel_pure_split4000_batch003.csv

>  <fragmenstein_runtime>  (470) 
22.374156

>  <tags>  (470) 
['Fragmenstein placed']

>  <original ID>  (470) 
XPRJREUJBZSEDV-VIFPVBQESA-N

>  <fragmenstein_error>  (470) 
None

>  <original SMILES>  (470) 
COCc1noc([C@H](C)OC(=O)c2cc3ccccc3o2)n1

>  <inchikey>  (470) 
XPRJREUJBZSEDV-VIFPVBQESA-N

>  <SLURM_JOB_NAME>  (470) 
BulkDock.place:Flavi_NS5_RdRp:RdRp_knitwork_green_site_rna_tunnel_pure_split4000_batch003

>  <scratch_subdir>  (470) 
/opt/xchem-fragalysis-2/maxwin/BulkDock/SCRATCH/217074/C43131-P150

>  <alias>  (470) 
None

>  <SLURM_JOB_ID>  (470) 
217074

>  <exports>  (470) 
['/opt/xchem-fragalysis-2/maxwin/BulkDock/OUTPUTS/RdRp_knitwork_green_site_rna_tunnel_pure_split4000_batch003_217074.sdf']

$$$$
150698
     RDKit          3D

 24 27  0  0  0  0  0  0  0  0999 V2000
  -24.9287  -34.2664  -23.3775 O   0  0  0  0  0  0  0  0  0  0  0  0
  -24.2720  -33.5637  -22.7218 C   0  0  0  0  0  0  0  0  0  0  0  0
  -24.3919  -32.0582  -22.4493 N   0  0  0  0  0  0  0  0  0  0  0  0
  -25.2859  -31.0800  -22.9981 C   0  0  0  0  0  0  0  0  0  0  0  0
  -26.1830  -30.4334  -21.9595 C   0  0  0  0  0  0  0  0  0  0  0  0
  -27.1140  -31.4004  -21.2353 C   0  0  0  0  0  0  0  0  0  0  0  0
  -27.7053  -30.7905  -20.0527 N   0  0  0  0  0  0  0  0  0  0  0  0
  -29.0125  -30.4104  -19.9066 C   0  0  0  0  0  0  0  0  0  0  0  0
  -29.1701  -29.9516  -18.6167 C   0  0  0  0  0  0  0  0  0  0  0  0
  -27.9055  -30.0253  -17.9701 C   0  0  0  0  0  0  0  0  0  0  0  0
  -27.4380  -29.6983  -16.6838 C   0  0  0  0  0  0  0  0  0  0  0  0
  -26.0837  -29.8830  -16.3758 C   0  0  0  0  0  0  0  0  0  0  0  0
  -25.2006  -30.4030  -17.3157 C   0  0  0  0  0  0  0  0  0  0  0  0
  -25.6485  -30.7646  -18.5834 C   0  0  0  0  0  0  0  0  0  0  0  0
  -27.0022  -30.5542  -18.8910 C   0  0  0  0  0  0  0  0  0  0  0  0
  -23.1419  -34.1302  -21.9805 C   0  0  0  0  0  0  0  0  0  0  0  0
  -23.1097  -35.4546  -21.5808 C   0  0  0  0  0  0  0  0  0  0  0  0
  -21.9838  -35.7358  -20.8841 O   0  0  0  0  0  0  0  0  0  0  0  0
  -21.2436  -34.5967  -20.8547 C   0  0  0  0  0  0  0  0  0  0  0  0
  -20.0012  -34.4693  -20.2345 C   0  0  0  0  0  0  0  0  0  0  0  0
  -19.3852  -33.2182  -20.3102 C   0  0  0  0  0  0  0  0  0  0  0  0
  -19.9889  -32.1664  -20.9987 C   0  0  0  0  0  0  0  0  0  0  0  0
  -21.2271  -32.3337  -21.6367 C   0  0  0  0  0  0  0  0  0  0  0  0
  -21.8943  -33.5731  -21.5383 C   0  0  0  0  0  0  0  0  0  0  0  0
  1  2  2  0
  2  3  1  0
  3  4  1  0
  4  5  1  0
  5  6  1  0
  6  7  1  0
  7  8  1  0
  8  9  2  0
  9 10  1  0
 10 11  2  0
 11 12  1  0
 12 13  2  0
 13 14  1  0
 14 15  2  0
  2 16  1  0
 16 17  2  0
 17 18  1  0
 18 19  1  0
 19 20  2  0
 20 21  1  0
 21 22  2  0
 22 23  1  0
 23 24  2  0
 15  7  1  0
 24 16  1  0
 15 10  1  0
 24 19  1  0
M  END
>  <HIPPO Pose ID>  (471) 
150698

>  <fragmenstein_outcome>  (471) 
acceptable

>  <energy_score>  (471) 
-12.134459

>  <distance_score>  (471) 
0.714252

>  <fragmenstein_mode>  (471) 
expansion

>  <HIPPO Compound ID>  (471) 
32821

>  <name>  (471) 
GSPXHXRFTKWZPJ-UHFFFAOYSA-N

>  <ref_pdb>  (471) 
z0107a

>  <ref_mols>  (471) 
z0107a,3vws-b

>  <csv_name>  (471) 
RdRp_knitwork_green_site_rna_tunnel_pure_split4000_batch008.csv

>  <fragmenstein_runtime>  (471) 
4.026909

>  <tags>  (471) 
['Fragmenstein placed']

>  <original ID>  (471) 
GSPXHXRFTKWZPJ-UHFFFAOYSA-N

>  <fragmenstein_error>  (471) 
None

>  <original SMILES>  (471) 
O=C(NCCCn1ccc2ccccc21)c1coc2ccccc12

>  <inchikey>  (471) 
GSPXHXRFTKWZPJ-UHFFFAOYSA-N

>  <SLURM_JOB_NAME>  (471) 
BulkDock.place:Flavi_NS5_RdRp:RdRp_knitwork_green_site_rna_tunnel_pure_split4000_batch008

>  <scratch_subdir>  (471) 
/opt/xchem-fragalysis-2/maxwin/BulkDock/SCRATCH/217079/C32821-P86

>  <alias>  (471) 
None

>  <SLURM_JOB_ID>  (471) 
217079

>  <exports>  (471) 
['/opt/xchem-fragalysis-2/maxwin/BulkDock/OUTPUTS/RdRp_knitwork_green_site_rna_tunnel_pure_split4000_batch008_217079.sdf']

$$$$
150848
     RDKit          3D

 23 26  0  0  0  0  0  0  0  0999 V2000
  -26.6232  -31.7978  -21.9657 O   0  0  0  0  0  0  0  0  0  0  0  0
  -25.6147  -31.5824  -21.4765 C   0  0  0  0  0  0  0  0  0  0  0  0
  -24.1853  -31.9527  -21.9299 N   0  0  0  0  0  0  0  0  0  0  0  0
  -23.7382  -32.7477  -23.0358 C   0  0  0  0  0  0  0  0  0  0  0  0
  -22.8026  -33.7281  -22.4138 C   0  0  0  0  0  0  0  0  0  0  0  0
  -23.0028  -35.0778  -22.1996 C   0  0  0  0  0  0  0  0  0  0  0  0
  -22.0063  -35.6026  -21.4389 O   0  0  0  0  0  0  0  0  0  0  0  0
  -21.1397  -34.5901  -21.1579 C   0  0  0  0  0  0  0  0  0  0  0  0
  -20.0025  -34.6865  -20.3579 C   0  0  0  0  0  0  0  0  0  0  0  0
  -19.2665  -33.5127  -20.1664 C   0  0  0  0  0  0  0  0  0  0  0  0
  -19.6614  -32.3112  -20.7569 C   0  0  0  0  0  0  0  0  0  0  0  0
  -20.7991  -32.2493  -21.5716 C   0  0  0  0  0  0  0  0  0  0  0  0
  -21.5603  -33.4180  -21.7684 C   0  0  0  0  0  0  0  0  0  0  0  0
  -25.2814  -30.9199  -20.1061 N   0  0  0  0  0  0  0  0  0  0  0  0
  -26.1202  -30.5021  -19.0824 C   0  0  0  0  0  0  0  0  0  0  0  0
  -25.5133  -30.2007  -17.8527 C   0  0  0  0  0  0  0  0  0  0  0  0
  -26.2665  -29.8221  -16.7477 C   0  0  0  0  0  0  0  0  0  0  0  0
  -27.6553  -29.7196  -16.8441 C   0  0  0  0  0  0  0  0  0  0  0  0
  -28.2871  -29.9884  -18.0742 C   0  0  0  0  0  0  0  0  0  0  0  0
  -29.6402  -29.9665  -18.5046 C   0  0  0  0  0  0  0  0  0  0  0  0
  -29.6650  -30.3070  -19.8366 C   0  0  0  0  0  0  0  0  0  0  0  0
  -28.3777  -30.5631  -20.2241 N   0  0  0  0  0  0  0  0  0  0  0  0
  -27.5101  -30.3752  -19.1698 C   0  0  0  0  0  0  0  0  0  0  0  0
  1  2  2  0
  2  3  1  0
  3  4  1  0
  4  5  1  0
  5  6  2  0
  6  7  1  0
  7  8  1  0
  8  9  2  0
  9 10  1  0
 10 11  2  0
 11 12  1  0
 12 13  2  0
  2 14  1  0
 14 15  1  0
 15 16  2  0
 16 17  1  0
 17 18  2  0
 18 19  1  0
 19 20  1  0
 20 21  2  0
 21 22  1  0
 22 23  1  0
 13  5  1  0
 23 15  1  0
 13  8  1  0
 23 19  2  0
M  END
>  <HIPPO Pose ID>  (472) 
150848

>  <fragmenstein_outcome>  (472) 
acceptable

>  <energy_score>  (472) 
-30.280971

>  <distance_score>  (472) 
0.652149

>  <fragmenstein_mode>  (472) 
expansion

>  <HIPPO Compound ID>  (472) 
33774

>  <name>  (472) 
ZVRPUUGSQSVKAM-UHFFFAOYSA-N

>  <ref_pdb>  (472) 
z0107a

>  <ref_mols>  (472) 
z0107a,3vws-b

>  <csv_name>  (472) 
RdRp_knitwork_green_site_rna_tunnel_pure_split4000_batch008.csv

>  <fragmenstein_runtime>  (472) 
2.327896

>  <tags>  (472) 
['Fragmenstein placed']

>  <original ID>  (472) 
ZVRPUUGSQSVKAM-UHFFFAOYSA-N

>  <fragmenstein_error>  (472) 
None

>  <original SMILES>  (472) 
O=C(NCc1coc2ccccc12)Nc1cccc2cc[nH]c12

>  <inchikey>  (472) 
ZVRPUUGSQSVKAM-UHFFFAOYSA-N

>  <SLURM_JOB_NAME>  (472) 
BulkDock.place:Flavi_NS5_RdRp:RdRp_knitwork_green_site_rna_tunnel_pure_split4000_batch008

>  <scratch_subdir>  (472) 
/opt/xchem-fragalysis-2/maxwin/BulkDock/SCRATCH/217079/C33774-P86

>  <alias>  (472) 
None

>  <SLURM_JOB_ID>  (472) 
217079

>  <exports>  (472) 
['/opt/xchem-fragalysis-2/maxwin/BulkDock/OUTPUTS/RdRp_knitwork_green_site_rna_tunnel_pure_split4000_batch008_217079.sdf']

$$$$
150868
     RDKit          3D

 22 25  0  0  0  0  0  0  0  0999 V2000
  -25.7905  -30.3878  -17.3873 C   0  0  0  0  0  0  0  0  0  0  0  0
  -25.3208  -30.5880  -18.6839 C   0  0  0  0  0  0  0  0  0  0  0  0
  -26.1790  -30.5659  -19.8041 C   0  0  0  0  0  0  0  0  0  0  0  0
  -25.6076  -30.7140  -21.1945 C   0  0  0  0  0  0  0  0  0  0  0  0
  -25.0865  -32.1252  -21.4936 C   0  0  0  0  0  0  0  0  0  0  0  0
  -24.4160  -32.1234  -22.7961 N   0  0  0  0  0  0  0  0  0  0  0  0
  -23.9330  -33.4279  -23.2280 C   0  0  0  0  0  0  0  0  0  0  0  0
  -22.9581  -34.0578  -22.2928 C   0  0  0  0  0  0  0  0  0  0  0  0
  -23.0382  -35.3532  -21.8130 C   0  0  0  0  0  0  0  0  0  0  0  0
  -21.9964  -35.6461  -20.9985 O   0  0  0  0  0  0  0  0  0  0  0  0
  -21.2192  -34.5323  -20.9364 C   0  0  0  0  0  0  0  0  0  0  0  0
  -20.0460  -34.4129  -20.1934 C   0  0  0  0  0  0  0  0  0  0  0  0
  -19.4066  -33.1709  -20.2285 C   0  0  0  0  0  0  0  0  0  0  0  0
  -19.9237  -32.1205  -20.9884 C   0  0  0  0  0  0  0  0  0  0  0  0
  -21.0854  -32.2845  -21.7568 C   0  0  0  0  0  0  0  0  0  0  0  0
  -21.7612  -33.5186  -21.7193 C   0  0  0  0  0  0  0  0  0  0  0  0
  -27.5435  -30.3443  -19.5318 C   0  0  0  0  0  0  0  0  0  0  0  0
  -28.6209  -30.2396  -20.3884 N   0  0  0  0  0  0  0  0  0  0  0  0
  -29.7756  -30.0384  -19.6835 C   0  0  0  0  0  0  0  0  0  0  0  0
  -29.4478  -29.9774  -18.3497 C   0  0  0  0  0  0  0  0  0  0  0  0
  -28.0419  -30.1575  -18.2394 C   0  0  0  0  0  0  0  0  0  0  0  0
  -27.1496  -30.1744  -17.1510 C   0  0  0  0  0  0  0  0  0  0  0  0
  1  2  2  0
  2  3  1  0
  3  4  1  0
  4  5  1  0
  5  6  1  0
  6  7  1  0
  7  8  1  0
  8  9  2  0
  9 10  1  0
 10 11  1  0
 11 12  2  0
 12 13  1  0
 13 14  2  0
 14 15  1  0
 15 16  2  0
  3 17  2  0
 17 18  1  0
 18 19  1  0
 19 20  2  0
 20 21  1  0
 21 22  2  0
 22  1  1  0
 16  8  1  0
 21 17  1  0
 16 11  1  0
M  END
>  <HIPPO Pose ID>  (473) 
150868

>  <fragmenstein_outcome>  (473) 
acceptable

>  <energy_score>  (473) 
-47.139193

>  <distance_score>  (473) 
0.508065

>  <fragmenstein_mode>  (473) 
expansion

>  <HIPPO Compound ID>  (473) 
35665

>  <name>  (473) 
FTDJVIUCIBXVPQ-UHFFFAOYSA-N

>  <ref_pdb>  (473) 
z0107a

>  <ref_mols>  (473) 
z0107a,3vws-b

>  <csv_name>  (473) 
RdRp_knitwork_green_site_rna_tunnel_pure_split4000_batch008.csv

>  <fragmenstein_runtime>  (473) 
1.910105

>  <tags>  (473) 
['Fragmenstein placed']

>  <original ID>  (473) 
FTDJVIUCIBXVPQ-UHFFFAOYSA-N

>  <fragmenstein_error>  (473) 
None

>  <original SMILES>  (473) 
c1cc(CCNCc2coc3ccccc23)c2[nH]ccc2c1

>  <inchikey>  (473) 
FTDJVIUCIBXVPQ-UHFFFAOYSA-N

>  <SLURM_JOB_NAME>  (473) 
BulkDock.place:Flavi_NS5_RdRp:RdRp_knitwork_green_site_rna_tunnel_pure_split4000_batch008

>  <scratch_subdir>  (473) 
/opt/xchem-fragalysis-2/maxwin/BulkDock/SCRATCH/217079/C35665-P86

>  <alias>  (473) 
None

>  <SLURM_JOB_ID>  (473) 
217079

>  <exports>  (473) 
['/opt/xchem-fragalysis-2/maxwin/BulkDock/OUTPUTS/RdRp_knitwork_green_site_rna_tunnel_pure_split4000_batch008_217079.sdf']

$$$$
151306
     RDKit          3D

 21 24  0  0  0  0  0  0  0  0999 V2000
  -28.0872  -29.0753  -20.0626 C   0  0  0  0  0  0  0  0  0  0  0  0
  -28.4472  -30.1109  -19.2332 C   0  0  0  0  0  0  0  0  0  0  0  0
  -27.3056  -30.9491  -19.1340 C   0  0  0  0  0  0  0  0  0  0  0  0
  -26.9926  -32.1531  -18.4765 C   0  0  0  0  0  0  0  0  0  0  0  0
  -25.7274  -32.7398  -18.6792 C   0  0  0  0  0  0  0  0  0  0  0  0
  -25.3613  -34.0384  -17.9913 C   0  0  0  0  0  0  0  0  0  0  0  0
  -24.7482  -33.8208  -16.6932 N   0  0  0  0  0  0  0  0  0  0  0  0
  -23.4651  -33.2980  -16.5542 C   0  0  0  0  0  0  0  0  0  0  0  0
  -22.4214  -33.5669  -17.4436 C   0  0  0  0  0  0  0  0  0  0  0  0
  -21.1593  -32.9872  -17.2721 C   0  0  0  0  0  0  0  0  0  0  0  0
  -20.9151  -32.1415  -16.1934 C   0  0  0  0  0  0  0  0  0  0  0  0
  -21.9149  -31.9133  -15.2483 C   0  0  0  0  0  0  0  0  0  0  0  0
  -23.1775  -32.4994  -15.4371 C   0  0  0  0  0  0  0  0  0  0  0  0
  -21.6631  -31.0253  -14.0657 C   0  0  0  0  0  0  0  0  0  0  0  0
  -20.1712  -30.8049  -13.8638 C   0  0  0  0  0  0  0  0  0  0  0  0
  -19.5240  -30.5069  -15.2035 C   0  0  0  0  0  0  0  0  0  0  0  0
  -19.6561  -31.6097  -16.1105 O   0  0  0  0  0  0  0  0  0  0  0  0
  -24.7955  -32.1045  -19.5203 C   0  0  0  0  0  0  0  0  0  0  0  0
  -25.0727  -30.8905  -20.1548 C   0  0  0  0  0  0  0  0  0  0  0  0
  -26.3343  -30.3573  -19.9325 C   0  0  0  0  0  0  0  0  0  0  0  0
  -26.8034  -29.2039  -20.4774 O   0  0  0  0  0  0  0  0  0  0  0  0
  1  2  2  0
  2  3  1  0
  3  4  2  0
  4  5  1  0
  5  6  1  0
  6  7  1  0
  7  8  1  0
  8  9  2  0
  9 10  1  0
 10 11  2  0
 11 12  1  0
 12 13  2  0
 12 14  1  0
 14 15  1  0
 15 16  1  0
 16 17  1  0
  5 18  2  0
 18 19  1  0
 19 20  2  0
 20 21  1  0
 21  1  1  0
 20  3  1  0
 13  8  1  0
 17 11  1  0
M  END
>  <HIPPO Pose ID>  (474) 
151306

>  <fragmenstein_outcome>  (474) 
acceptable

>  <energy_score>  (474) 
-37.962874

>  <distance_score>  (474) 
0.654677

>  <fragmenstein_mode>  (474) 
expansion

>  <HIPPO Compound ID>  (474) 
52494

>  <name>  (474) 
MEXDLCACUCCDJG-UHFFFAOYSA-N

>  <ref_pdb>  (474) 
3vws-a

>  <ref_mols>  (474) 
z0991a,3vws-a

>  <csv_name>  (474) 
RdRp_knitwork_green_site_rna_tunnel_pure_split4000_batch007.csv

>  <fragmenstein_runtime>  (474) 
6.088652

>  <tags>  (474) 
['Fragmenstein placed']

>  <original ID>  (474) 
MEXDLCACUCCDJG-UHFFFAOYSA-N

>  <fragmenstein_error>  (474) 
None

>  <original SMILES>  (474) 
c1cc2cc(CNc3ccc4c(c3)CCCO4)ccc2o1

>  <inchikey>  (474) 
MEXDLCACUCCDJG-UHFFFAOYSA-N

>  <SLURM_JOB_NAME>  (474) 
BulkDock.place:Flavi_NS5_RdRp:RdRp_knitwork_green_site_rna_tunnel_pure_split4000_batch007

>  <scratch_subdir>  (474) 
/opt/xchem-fragalysis-2/maxwin/BulkDock/SCRATCH/217078/C52494-P218

>  <alias>  (474) 
None

>  <SLURM_JOB_ID>  (474) 
217078

>  <exports>  (474) 
['/opt/xchem-fragalysis-2/maxwin/BulkDock/OUTPUTS/RdRp_knitwork_green_site_rna_tunnel_pure_split4000_batch007_217078.sdf']

$$$$
151643
     RDKit          3D

 23 25  0  0  0  0  0  0  0  0999 V2000
  -27.4837  -32.6144  -19.3705 O   0  0  0  0  0  0  0  0  0  0  0  0
  -26.9451  -31.8428  -18.5839 C   0  0  0  0  0  0  0  0  0  0  0  0
  -25.9707  -32.2233  -17.7084 O   0  0  0  0  0  0  0  0  0  0  0  0
  -25.6322  -33.6200  -17.8011 C   0  0  0  0  0  0  0  0  0  0  0  0
  -24.8755  -34.0735  -16.5523 C   0  0  0  0  0  0  0  0  0  0  0  0
  -23.4988  -33.4724  -16.3731 C   0  0  0  0  0  0  0  0  0  0  0  0
  -22.5219  -33.5871  -17.3753 C   0  0  0  0  0  0  0  0  0  0  0  0
  -21.2360  -33.0524  -17.2212 C   0  0  0  0  0  0  0  0  0  0  0  0
  -20.9572  -32.4589  -15.9960 C   0  0  0  0  0  0  0  0  0  0  0  0
  -19.7630  -31.9185  -15.6288 O   0  0  0  0  0  0  0  0  0  0  0  0
  -19.8869  -31.5246  -14.3361 C   0  0  0  0  0  0  0  0  0  0  0  0
  -21.1629  -31.7602  -13.8777 C   0  0  0  0  0  0  0  0  0  0  0  0
  -21.8693  -32.3613  -14.9533 C   0  0  0  0  0  0  0  0  0  0  0  0
  -23.1703  -32.8574  -15.1484 C   0  0  0  0  0  0  0  0  0  0  0  0
  -27.2256  -30.3461  -18.5401 C   0  0  0  0  0  0  0  0  0  0  0  0
  -26.1222  -29.7242  -19.3740 C   0  0  0  0  0  0  0  0  0  0  0  0
  -26.0151  -30.3258  -20.5833 F   0  0  0  0  0  0  0  0  0  0  0  0
  -26.4065  -28.4203  -19.6324 F   0  0  0  0  0  0  0  0  0  0  0  0
  -27.2293  -29.7389  -17.1157 C   0  0  0  0  0  0  0  0  0  0  0  0
  -28.6238  -29.7122  -16.4976 C   0  0  0  0  0  0  0  0  0  0  0  0
  -29.3762  -30.8115  -16.9821 O   0  0  0  0  0  0  0  0  0  0  0  0
  -29.7270  -30.6768  -18.3604 C   0  0  0  0  0  0  0  0  0  0  0  0
  -28.5896  -30.0797  -19.1896 C   0  0  0  0  0  0  0  0  0  0  0  0
  1  2  2  0
  2  3  1  0
  3  4  1  0
  4  5  1  0
  5  6  1  0
  6  7  2  0
  7  8  1  0
  8  9  2  0
  9 10  1  0
 10 11  1  0
 11 12  2  0
 12 13  1  0
 13 14  2  0
  2 15  1  0
 15 16  1  0
 16 17  1  0
 16 18  1  0
 15 19  1  0
 19 20  1  0
 20 21  1  0
 21 22  1  0
 22 23  1  0
 14  6  1  0
 23 15  1  0
 13  9  1  0
M  END
>  <HIPPO Pose ID>  (475) 
151643

>  <fragmenstein_outcome>  (475) 
acceptable

>  <energy_score>  (475) 
-37.260626

>  <distance_score>  (475) 
0.852648

>  <fragmenstein_mode>  (475) 
expansion

>  <HIPPO Compound ID>  (475) 
51426

>  <name>  (475) 
INMXEPLYSLDCDO-UHFFFAOYSA-N

>  <ref_pdb>  (475) 
z0628a

>  <ref_mols>  (475) 
z0628a,3vws-a

>  <csv_name>  (475) 
RdRp_knitwork_green_site_rna_tunnel_pure_split4000_batch003.csv

>  <fragmenstein_runtime>  (475) 
9.17373

>  <tags>  (475) 
['Fragmenstein placed']

>  <original ID>  (475) 
INMXEPLYSLDCDO-UHFFFAOYSA-N

>  <fragmenstein_error>  (475) 
None

>  <original SMILES>  (475) 
O=C(OCCc1ccc2occc2c1)C1(C(F)F)CCOCC1

>  <inchikey>  (475) 
INMXEPLYSLDCDO-UHFFFAOYSA-N

>  <SLURM_JOB_NAME>  (475) 
BulkDock.place:Flavi_NS5_RdRp:RdRp_knitwork_green_site_rna_tunnel_pure_split4000_batch003

>  <scratch_subdir>  (475) 
/opt/xchem-fragalysis-2/maxwin/BulkDock/SCRATCH/217074/C51426-P150

>  <alias>  (475) 
None

>  <SLURM_JOB_ID>  (475) 
217074

>  <exports>  (475) 
['/opt/xchem-fragalysis-2/maxwin/BulkDock/OUTPUTS/RdRp_knitwork_green_site_rna_tunnel_pure_split4000_batch003_217074.sdf']

$$$$
151994
     RDKit          3D

 24 27  0  0  0  0  0  0  0  0999 V2000
  -26.3635  -33.0067  -23.0660 O   0  0  0  0  0  0  0  0  0  0  0  0
  -26.4179  -33.4899  -22.0063 C   0  0  0  0  0  0  0  0  0  0  0  0
  -27.3228  -32.9461  -20.9096 C   0  0  0  0  0  0  0  0  0  0  0  0
  -27.6304  -31.4645  -21.1565 C   0  0  0  0  0  0  0  0  0  0  0  0
  -27.9888  -30.7797  -19.9262 N   0  0  0  0  0  0  0  0  0  0  0  0
  -29.2545  -30.4254  -19.5454 C   0  0  0  0  0  0  0  0  0  0  0  0
  -29.1796  -29.9493  -18.2548 C   0  0  0  0  0  0  0  0  0  0  0  0
  -27.8150  -29.9899  -17.8540 C   0  0  0  0  0  0  0  0  0  0  0  0
  -27.1284  -29.6637  -16.6697 C   0  0  0  0  0  0  0  0  0  0  0  0
  -25.7356  -29.8081  -16.6183 C   0  0  0  0  0  0  0  0  0  0  0  0
  -25.0242  -30.2743  -17.7189 C   0  0  0  0  0  0  0  0  0  0  0  0
  -25.6840  -30.6191  -18.8973 C   0  0  0  0  0  0  0  0  0  0  0  0
  -27.0806  -30.4735  -18.9362 C   0  0  0  0  0  0  0  0  0  0  0  0
  -25.6682  -34.7118  -21.4213 N   0  0  0  0  0  0  0  0  0  0  0  0
  -24.6268  -35.5321  -21.9905 C   0  0  0  0  0  0  0  0  0  0  0  0
  -23.3413  -34.8190  -21.7997 C   0  0  0  0  0  0  0  0  0  0  0  0
  -22.9077  -33.5727  -22.2064 C   0  0  0  0  0  0  0  0  0  0  0  0
  -21.6494  -33.3605  -21.5966 C   0  0  0  0  0  0  0  0  0  0  0  0
  -20.7415  -32.2907  -21.5314 C   0  0  0  0  0  0  0  0  0  0  0  0
  -19.5791  -32.4461  -20.7657 C   0  0  0  0  0  0  0  0  0  0  0  0
  -19.3060  -33.6461  -20.1045 C   0  0  0  0  0  0  0  0  0  0  0  0
  -20.1978  -34.7230  -20.1617 C   0  0  0  0  0  0  0  0  0  0  0  0
  -21.3603  -34.5304  -20.9050 C   0  0  0  0  0  0  0  0  0  0  0  0
  -22.3808  -35.4279  -21.0410 O   0  0  0  0  0  0  0  0  0  0  0  0
  1  2  2  0
  2  3  1  0
  3  4  1  0
  4  5  1  0
  5  6  1  0
  6  7  2  0
  7  8  1  0
  8  9  2  0
  9 10  1  0
 10 11  2  0
 11 12  1  0
 12 13  2  0
  2 14  1  0
 14 15  1  0
 15 16  1  0
 16 17  2  0
 17 18  1  0
 18 19  2  0
 19 20  1  0
 20 21  2  0
 21 22  1  0
 22 23  2  0
 23 24  1  0
 13  5  1  0
 24 16  1  0
 13  8  1  0
 23 18  1  0
M  END
>  <HIPPO Pose ID>  (476) 
151994

>  <fragmenstein_outcome>  (476) 
acceptable

>  <energy_score>  (476) 
-52.10094

>  <distance_score>  (476) 
0.75941

>  <fragmenstein_mode>  (476) 
expansion

>  <HIPPO Compound ID>  (476) 
29578

>  <name>  (476) 
DKJHMBUHGIZJDO-UHFFFAOYSA-N

>  <ref_pdb>  (476) 
z0107a

>  <ref_mols>  (476) 
z0107a,3vws-b

>  <csv_name>  (476) 
RdRp_knitwork_green_site_rna_tunnel_pure_split4000_batch008.csv

>  <fragmenstein_runtime>  (476) 
3.83432

>  <tags>  (476) 
['Fragmenstein placed']

>  <original ID>  (476) 
DKJHMBUHGIZJDO-UHFFFAOYSA-N

>  <fragmenstein_error>  (476) 
None

>  <original SMILES>  (476) 
O=C(CCn1ccc2ccccc21)NCc1cc2ccccc2o1

>  <inchikey>  (476) 
DKJHMBUHGIZJDO-UHFFFAOYSA-N

>  <SLURM_JOB_NAME>  (476) 
BulkDock.place:Flavi_NS5_RdRp:RdRp_knitwork_green_site_rna_tunnel_pure_split4000_batch008

>  <scratch_subdir>  (476) 
/opt/xchem-fragalysis-2/maxwin/BulkDock/SCRATCH/217079/C29578-P86

>  <alias>  (476) 
None

>  <SLURM_JOB_ID>  (476) 
217079

>  <exports>  (476) 
['/opt/xchem-fragalysis-2/maxwin/BulkDock/OUTPUTS/RdRp_knitwork_green_site_rna_tunnel_pure_split4000_batch008_217079.sdf']

$$$$
152094
     RDKit          3D

 24 27  0  0  0  0  0  0  0  0999 V2000
  -26.7306  -32.4358  -22.5105 O   0  0  0  0  0  0  0  0  0  0  0  0
  -26.8547  -33.2072  -21.6402 C   0  0  0  0  0  0  0  0  0  0  0  0
  -27.9856  -33.0919  -20.6110 C   0  0  0  0  0  0  0  0  0  0  0  0
  -28.1665  -31.7581  -20.0283 N   0  0  0  0  0  0  0  0  0  0  0  0
  -29.3856  -31.1408  -19.8685 C   0  0  0  0  0  0  0  0  0  0  0  0
  -29.2583  -30.2036  -18.8668 C   0  0  0  0  0  0  0  0  0  0  0  0
  -27.9064  -30.2156  -18.4328 C   0  0  0  0  0  0  0  0  0  0  0  0
  -27.1954  -29.5429  -17.4199 C   0  0  0  0  0  0  0  0  0  0  0  0
  -25.8200  -29.7622  -17.2771 C   0  0  0  0  0  0  0  0  0  0  0  0
  -25.1633  -30.6399  -18.1298 C   0  0  0  0  0  0  0  0  0  0  0  0
  -23.4798  -30.9098  -17.9601 Cl  0  0  0  0  0  0  0  0  0  0  0  0
  -25.8457  -31.3433  -19.1178 C   0  0  0  0  0  0  0  0  0  0  0  0
  -27.2244  -31.1309  -19.2375 C   0  0  0  0  0  0  0  0  0  0  0  0
  -26.0428  -34.4987  -21.3114 N   0  0  0  0  0  0  0  0  0  0  0  0
  -24.9772  -35.1492  -22.0421 C   0  0  0  0  0  0  0  0  0  0  0  0
  -23.6740  -34.5082  -21.7488 C   0  0  0  0  0  0  0  0  0  0  0  0
  -23.1784  -33.2513  -22.0292 C   0  0  0  0  0  0  0  0  0  0  0  0
  -21.8721  -33.1943  -21.4867 C   0  0  0  0  0  0  0  0  0  0  0  0
  -20.8736  -32.2102  -21.3942 C   0  0  0  0  0  0  0  0  0  0  0  0
  -19.6809  -32.5204  -20.7291 C   0  0  0  0  0  0  0  0  0  0  0  0
  -19.4732  -33.7881  -20.1814 C   0  0  0  0  0  0  0  0  0  0  0  0
  -20.4554  -34.7825  -20.2666 C   0  0  0  0  0  0  0  0  0  0  0  0
  -21.6374  -34.4419  -20.9229 C   0  0  0  0  0  0  0  0  0  0  0  0
  -22.7254  -35.2516  -21.0957 O   0  0  0  0  0  0  0  0  0  0  0  0
  1  2  2  0
  2  3  1  0
  3  4  1  0
  4  5  1  0
  5  6  2  0
  6  7  1  0
  7  8  2  0
  8  9  1  0
  9 10  2  0
 10 11  1  0
 10 12  1  0
 12 13  2  0
  2 14  1  0
 14 15  1  0
 15 16  1  0
 16 17  2  0
 17 18  1  0
 18 19  2  0
 19 20  1  0
 20 21  2  0
 21 22  1  0
 22 23  2  0
 23 24  1  0
 13  4  1  0
 24 16  1  0
 13  7  1  0
 23 18  1  0
M  END
>  <HIPPO Pose ID>  (477) 
152094

>  <fragmenstein_outcome>  (477) 
acceptable

>  <energy_score>  (477) 
-1.191582

>  <distance_score>  (477) 
0.976389

>  <fragmenstein_mode>  (477) 
expansion

>  <HIPPO Compound ID>  (477) 
38982

>  <name>  (477) 
HKZQDGZWQQDOIQ-UHFFFAOYSA-N

>  <ref_pdb>  (477) 
z0107a

>  <ref_mols>  (477) 
z0107a,3vws-b

>  <csv_name>  (477) 
RdRp_knitwork_green_site_rna_tunnel_pure_split4000_batch008.csv

>  <fragmenstein_runtime>  (477) 
3.650747

>  <tags>  (477) 
['Fragmenstein placed']

>  <original ID>  (477) 
HKZQDGZWQQDOIQ-UHFFFAOYSA-N

>  <fragmenstein_error>  (477) 
None

>  <original SMILES>  (477) 
O=C(Cn1ccc2ccc(Cl)cc21)NCc1cc2ccccc2o1

>  <inchikey>  (477) 
HKZQDGZWQQDOIQ-UHFFFAOYSA-N

>  <SLURM_JOB_NAME>  (477) 
BulkDock.place:Flavi_NS5_RdRp:RdRp_knitwork_green_site_rna_tunnel_pure_split4000_batch008

>  <scratch_subdir>  (477) 
/opt/xchem-fragalysis-2/maxwin/BulkDock/SCRATCH/217079/C38982-P86

>  <alias>  (477) 
None

>  <SLURM_JOB_ID>  (477) 
217079

>  <exports>  (477) 
['/opt/xchem-fragalysis-2/maxwin/BulkDock/OUTPUTS/RdRp_knitwork_green_site_rna_tunnel_pure_split4000_batch008_217079.sdf']

$$$$
152203
     RDKit          3D

 16 17  0  0  0  0  0  0  0  0999 V2000
  -29.5951  -29.9358  -20.2493 C   0  0  0  0  0  0  0  0  0  0  0  0
  -28.4663  -29.8219  -19.2325 C   0  0  2  0  0  0  0  0  0  0  0  0
  -27.3086  -30.6374  -19.6258 N   0  0  0  0  0  0  0  0  0  0  0  0
  -26.8034  -30.3567  -20.9702 C   0  0  0  0  0  0  0  0  0  0  0  0
  -25.5839  -31.2444  -21.2639 C   0  0  0  0  0  0  0  0  0  0  0  0
  -25.0863  -31.1619  -22.7086 C   0  0  2  0  0  0  0  0  0  0  0  0
  -24.8701  -29.8047  -23.1503 N   0  0  0  0  0  0  0  0  0  0  0  0
  -25.7281  -29.4703  -24.1709 C   0  0  0  0  0  0  0  0  0  0  0  0
  -25.7797  -28.4029  -24.7530 O   0  0  0  0  0  0  0  0  0  0  0  0
  -26.5265  -30.5224  -24.4345 N   0  0  0  0  0  0  0  0  0  0  0  0
  -26.1487  -31.6073  -23.7092 C   0  0  0  0  0  0  0  0  0  0  0  0
  -26.5992  -32.7347  -23.8309 O   0  0  0  0  0  0  0  0  0  0  0  0
  -28.9742  -30.2863  -17.8740 C   0  0  0  0  0  0  0  0  0  0  0  0
  -29.9204  -31.3068  -17.9009 F   0  0  0  0  0  0  0  0  0  0  0  0
  -29.2111  -29.2963  -16.7577 C   0  0  0  0  0  0  0  0  0  0  0  0
  -28.0734  -30.2545  -16.6576 C   0  0  0  0  0  0  0  0  0  0  0  0
  2  1  1  6
  2  3  1  0
  3  4  1  0
  4  5  1  0
  6  5  1  1
  6  7  1  0
  7  8  1  0
  8  9  2  0
  8 10  1  0
 10 11  1  0
 11 12  2  0
  2 13  1  0
 13 14  1  0
 13 15  1  0
 15 16  1  0
 11  6  1  0
 16 13  1  0
M  END
>  <HIPPO Pose ID>  (478) 
152203

>  <fragmenstein_outcome>  (478) 
acceptable

>  <energy_score>  (478) 
-34.918755

>  <distance_score>  (478) 
0.953032

>  <fragmenstein_mode>  (478) 
expansion

>  <HIPPO Compound ID>  (478) 
50892

>  <name>  (478) 
CAMSUIASALOIOU-BQBZGAKWSA-N

>  <ref_pdb>  (478) 
z0519a

>  <ref_mols>  (478) 
z0519a,z0521a

>  <csv_name>  (478) 
RdRp_knitwork_green_site_rna_tunnel_pure_split4000_batch005.csv

>  <fragmenstein_runtime>  (478) 
3.03156

>  <tags>  (478) 
['Fragmenstein placed']

>  <original ID>  (478) 
CAMSUIASALOIOU-BQBZGAKWSA-N

>  <fragmenstein_error>  (478) 
None

>  <original SMILES>  (478) 
C[C@H](NCC[C@@H]1NC(=O)NC1=O)C1(F)CC1

>  <inchikey>  (478) 
CAMSUIASALOIOU-BQBZGAKWSA-N

>  <SLURM_JOB_NAME>  (478) 
BulkDock.place:Flavi_NS5_RdRp:RdRp_knitwork_green_site_rna_tunnel_pure_split4000_batch005

>  <scratch_subdir>  (478) 
/opt/xchem-fragalysis-2/maxwin/BulkDock/SCRATCH/217076/C50892-P140

>  <alias>  (478) 
None

>  <SLURM_JOB_ID>  (478) 
217076

>  <exports>  (478) 
['/opt/xchem-fragalysis-2/maxwin/BulkDock/OUTPUTS/RdRp_knitwork_green_site_rna_tunnel_pure_split4000_batch005_217076.sdf']

$$$$
153212
     RDKit          3D

 17 18  0  0  0  0  0  0  0  0999 V2000
  -28.3808  -31.2778  -20.9783 C   0  0  0  0  0  0  0  0  0  0  0  0
  -27.5783  -30.3660  -20.0453 C   0  0  2  0  0  0  0  0  0  0  0  0
  -27.3995  -28.9458  -20.6414 C   0  0  0  0  0  0  0  0  0  0  0  0
  -26.5853  -28.8529  -21.9144 C   0  0  0  0  0  0  0  0  0  0  0  0
  -27.0374  -29.4170  -23.1108 C   0  0  0  0  0  0  0  0  0  0  0  0
  -26.2748  -29.2967  -24.2586 C   0  0  0  0  0  0  0  0  0  0  0  0
  -25.1117  -28.6344  -24.2902 N   0  0  0  0  0  0  0  0  0  0  0  0
  -24.6762  -28.1013  -23.1308 C   0  0  0  0  0  0  0  0  0  0  0  0
  -25.3652  -28.1774  -21.9336 C   0  0  0  0  0  0  0  0  0  0  0  0
  -26.2518  -31.0639  -19.8243 C   0  0  0  0  0  0  0  0  0  0  0  0
  -26.0658  -32.2713  -19.7670 O   0  0  0  0  0  0  0  0  0  0  0  0
  -25.2390  -30.2105  -19.5859 O   0  0  0  0  0  0  0  0  0  0  0  0
  -28.2880  -30.2584  -18.7565 N   0  0  0  0  0  0  0  0  0  0  0  0
  -27.7563  -30.0929  -17.5046 C   0  0  0  0  0  0  0  0  0  0  0  0
  -28.8008  -30.1848  -16.6188 C   0  0  0  0  0  0  0  0  0  0  0  0
  -29.9352  -30.3181  -17.4284 C   0  0  0  0  0  0  0  0  0  0  0  0
  -29.6405  -30.3050  -18.7269 N   0  0  0  0  0  0  0  0  0  0  0  0
  2  1  1  6
  2  3  1  0
  3  4  1  0
  4  5  2  0
  5  6  1  0
  6  7  2  0
  7  8  1  0
  8  9  2  0
  2 10  1  0
 10 11  2  0
 10 12  1  0
  2 13  1  0
 13 14  1  0
 14 15  2  0
 15 16  1  0
 16 17  2  0
  9  4  1  0
 17 13  1  0
M  END
>  <HIPPO Pose ID>  (479) 
153212

>  <fragmenstein_outcome>  (479) 
acceptable

>  <energy_score>  (479) 
-32.474418

>  <distance_score>  (479) 
0.976029

>  <fragmenstein_mode>  (479) 
expansion

>  <HIPPO Compound ID>  (479) 
12307

>  <name>  (479) 
UTIGCBBKDOLLAC-LBPRGKRZSA-N

>  <ref_pdb>  (479) 
z0386a

>  <ref_mols>  (479) 
z0386a,z0653a

>  <csv_name>  (479) 
RdRp_knitwork_green_site_rna_tunnel_pure_split4000_batch014.csv

>  <fragmenstein_runtime>  (479) 
3.541309

>  <tags>  (479) 
['Fragmenstein placed']

>  <original ID>  (479) 
UTIGCBBKDOLLAC-LBPRGKRZSA-N

>  <fragmenstein_error>  (479) 
None

>  <original SMILES>  (479) 
C[C@](Cc1ccncc1)(C(=O)O)n1cccn1

>  <inchikey>  (479) 
UTIGCBBKDOLLAC-LBPRGKRZSA-N

>  <SLURM_JOB_NAME>  (479) 
BulkDock.place:Flavi_NS5_RdRp:RdRp_knitwork_green_site_rna_tunnel_pure_split4000_batch014

>  <scratch_subdir>  (479) 
/opt/xchem-fragalysis-2/maxwin/BulkDock/SCRATCH/217085/C12307-P121

>  <alias>  (479) 
None

>  <SLURM_JOB_ID>  (479) 
217085

>  <exports>  (479) 
['/opt/xchem-fragalysis-2/maxwin/BulkDock/OUTPUTS/RdRp_knitwork_green_site_rna_tunnel_pure_split4000_batch014_217085.sdf']

$$$$
155154
     RDKit          3D

 21 23  0  0  0  0  0  0  0  0999 V2000
  -19.5359  -31.1899  -16.4483 C   0  0  0  0  0  0  0  0  0  0  0  0
  -20.1654  -32.5585  -16.6434 C   0  0  0  0  0  0  0  0  0  0  0  0
  -21.5731  -32.5794  -16.3207 N   0  0  0  0  0  0  0  0  0  0  0  0
  -22.5189  -33.3943  -17.0559 C   0  0  0  0  0  0  0  0  0  0  0  0
  -23.8360  -32.9566  -16.4315 C   0  0  1  0  0  0  0  0  0  0  0  0
  -24.9721  -33.8602  -16.5906 N   0  0  0  0  0  0  0  0  0  0  0  0
  -25.5758  -34.2662  -18.0846 S   0  0  0  0  0  0  0  0  0  0  0  0
  -26.8537  -34.9150  -17.8810 O   0  0  0  0  0  0  0  0  0  0  0  0
  -24.5303  -34.8983  -18.8520 O   0  0  0  0  0  0  0  0  0  0  0  0
  -25.9003  -32.6877  -18.8261 C   0  0  0  0  0  0  0  0  0  0  0  0
  -24.9292  -32.1107  -19.6568 C   0  0  0  0  0  0  0  0  0  0  0  0
  -25.1541  -30.8751  -20.2630 C   0  0  0  0  0  0  0  0  0  0  0  0
  -26.4008  -30.3017  -20.0385 C   0  0  0  0  0  0  0  0  0  0  0  0
  -26.8274  -29.1316  -20.5788 O   0  0  0  0  0  0  0  0  0  0  0  0
  -28.1164  -28.9778  -20.1925 C   0  0  0  0  0  0  0  0  0  0  0  0
  -28.5203  -30.0034  -19.3728 C   0  0  0  0  0  0  0  0  0  0  0  0
  -27.4041  -30.8690  -19.2588 C   0  0  0  0  0  0  0  0  0  0  0  0
  -27.1498  -32.0866  -18.6130 C   0  0  0  0  0  0  0  0  0  0  0  0
  -23.4554  -32.8366  -14.9609 C   0  0  0  0  0  0  0  0  0  0  0  0
  -22.0470  -32.3242  -15.0351 C   0  0  0  0  0  0  0  0  0  0  0  0
  -21.4521  -31.8121  -14.1012 O   0  0  0  0  0  0  0  0  0  0  0  0
  1  2  1  0
  2  3  1  0
  3  4  1  0
  4  5  1  0
  5  6  1  1
  6  7  1  0
  7  8  2  0
  7  9  2  0
  7 10  1  0
 10 11  2  0
 11 12  1  0
 12 13  2  0
 13 14  1  0
 14 15  1  0
 15 16  2  0
 16 17  1  0
 17 18  2  0
  5 19  1  0
 19 20  1  0
 20 21  2  0
 20  3  1  0
 18 10  1  0
 17 13  1  0
M  END
>  <HIPPO Pose ID>  (480) 
155154

>  <fragmenstein_outcome>  (480) 
acceptable

>  <energy_score>  (480) 
-59.490487

>  <distance_score>  (480) 
0.889152

>  <fragmenstein_mode>  (480) 
expansion

>  <HIPPO Compound ID>  (480) 
60884

>  <name>  (480) 
AIGBIXGCKKCDDF-NSHDSACASA-N

>  <ref_pdb>  (480) 
3vws-a

>  <ref_mols>  (480) 
z1018a,3vws-a

>  <csv_name>  (480) 
RdRp_knitwork_green_site_rna_tunnel_pure_split4000_batch007.csv

>  <fragmenstein_runtime>  (480) 
22.875859

>  <tags>  (480) 
['Fragmenstein placed']

>  <original ID>  (480) 
AIGBIXGCKKCDDF-NSHDSACASA-N

>  <fragmenstein_error>  (480) 
None

>  <original SMILES>  (480) 
CCN1C[C@@H](NS(=O)(=O)c2ccc3occc3c2)CC1=O

>  <inchikey>  (480) 
AIGBIXGCKKCDDF-NSHDSACASA-N

>  <SLURM_JOB_NAME>  (480) 
BulkDock.place:Flavi_NS5_RdRp:RdRp_knitwork_green_site_rna_tunnel_pure_split4000_batch007

>  <scratch_subdir>  (480) 
/opt/xchem-fragalysis-2/maxwin/BulkDock/SCRATCH/217078/C60884-P218

>  <alias>  (480) 
None

>  <SLURM_JOB_ID>  (480) 
217078

>  <exports>  (480) 
['/opt/xchem-fragalysis-2/maxwin/BulkDock/OUTPUTS/RdRp_knitwork_green_site_rna_tunnel_pure_split4000_batch007_217078.sdf']

$$$$
155449
     RDKit          3D

 22 25  0  0  0  0  0  0  0  0999 V2000
  -29.3555  -30.2611  -18.0177 C   0  0  0  0  0  0  0  0  0  0  0  0
  -29.3558  -30.2014  -19.4128 C   0  0  0  0  0  0  0  0  0  0  0  0
  -28.2054  -30.5063  -20.1467 C   0  0  0  0  0  0  0  0  0  0  0  0
  -27.0600  -30.9427  -19.4609 C   0  0  0  0  0  0  0  0  0  0  0  0
  -25.7825  -31.4595  -19.8396 C   0  0  0  0  0  0  0  0  0  0  0  0
  -25.3371  -31.7600  -21.2293 C   0  0  0  0  0  0  0  0  0  0  0  0
  -23.9220  -31.6371  -21.5477 N   0  0  0  0  0  0  0  0  0  0  0  0
  -23.4851  -32.2333  -22.7370 C   0  0  0  0  0  0  0  0  0  0  0  0
  -22.1318  -32.4831  -22.9526 C   0  0  0  0  0  0  0  0  0  0  0  0
  -21.7004  -33.0793  -24.1466 C   0  0  0  0  0  0  0  0  0  0  0  0
  -22.6302  -33.4243  -25.1250 C   0  0  0  0  0  0  0  0  0  0  0  0
  -22.2373  -34.0983  -26.2980 N   0  0  0  0  0  0  0  0  0  0  0  0
  -21.7568  -35.4621  -25.9983 C   0  0  0  0  0  0  0  0  0  0  0  0
  -22.3334  -36.3539  -27.0892 C   0  0  0  0  0  0  0  0  0  0  0  0
  -23.6582  -35.6903  -27.3907 C   0  0  0  0  0  0  0  0  0  0  0  0
  -23.3221  -34.2067  -27.3036 C   0  0  0  0  0  0  0  0  0  0  0  0
  -23.9226  -33.1092  -24.9662 N   0  0  0  0  0  0  0  0  0  0  0  0
  -24.3103  -32.5082  -23.8211 C   0  0  0  0  0  0  0  0  0  0  0  0
  -25.1358  -31.7419  -18.6529 C   0  0  0  0  0  0  0  0  0  0  0  0
  -25.9241  -31.4530  -17.5856 O   0  0  0  0  0  0  0  0  0  0  0  0
  -27.1003  -30.9835  -18.0745 C   0  0  0  0  0  0  0  0  0  0  0  0
  -28.2090  -30.6310  -17.3108 C   0  0  0  0  0  0  0  0  0  0  0  0
  1  2  2  0
  2  3  1  0
  3  4  2  0
  4  5  1  0
  5  6  1  0
  6  7  1  0
  7  8  1  0
  8  9  2  0
  9 10  1  0
 10 11  2  0
 11 12  1  0
 12 13  1  0
 13 14  1  0
 14 15  1  0
 15 16  1  0
 11 17  1  0
 17 18  2  0
  5 19  2  0
 19 20  1  0
 20 21  1  0
 21 22  2  0
 22  1  1  0
 21  4  1  0
 18  8  1  0
 16 12  1  0
M  END
>  <HIPPO Pose ID>  (481) 
155449

>  <fragmenstein_outcome>  (481) 
acceptable

>  <energy_score>  (481) 
-41.583695

>  <distance_score>  (481) 
0.935397

>  <fragmenstein_mode>  (481) 
expansion

>  <HIPPO Compound ID>  (481) 
33260

>  <name>  (481) 
SLBKTXSDOYSKPD-UHFFFAOYSA-N

>  <ref_pdb>  (481) 
z0411a

>  <ref_mols>  (481) 
z0411a,3vws-a

>  <csv_name>  (481) 
RdRp_knitwork_green_site_rna_tunnel_pure_split4000_batch008.csv

>  <fragmenstein_runtime>  (481) 
6.336127

>  <tags>  (481) 
['Fragmenstein placed']

>  <original ID>  (481) 
SLBKTXSDOYSKPD-UHFFFAOYSA-N

>  <fragmenstein_error>  (481) 
None

>  <original SMILES>  (481) 
c1ccc2c(CNc3ccc(N4CCCC4)nc3)coc2c1

>  <inchikey>  (481) 
SLBKTXSDOYSKPD-UHFFFAOYSA-N

>  <SLURM_JOB_NAME>  (481) 
BulkDock.place:Flavi_NS5_RdRp:RdRp_knitwork_green_site_rna_tunnel_pure_split4000_batch008

>  <scratch_subdir>  (481) 
/opt/xchem-fragalysis-2/maxwin/BulkDock/SCRATCH/217079/C33260-P123

>  <alias>  (481) 
None

>  <SLURM_JOB_ID>  (481) 
217079

>  <exports>  (481) 
['/opt/xchem-fragalysis-2/maxwin/BulkDock/OUTPUTS/RdRp_knitwork_green_site_rna_tunnel_pure_split4000_batch008_217079.sdf']

$$$$
155777
     RDKit          3D

 21 23  0  0  0  0  0  0  0  0999 V2000
  -20.9515  -36.4301  -19.0694 C   0  0  0  0  0  0  0  0  0  0  0  0
  -20.3411  -35.1468  -19.1384 O   0  0  0  0  0  0  0  0  0  0  0  0
  -20.6291  -34.4053  -20.2711 C   0  0  0  0  0  0  0  0  0  0  0  0
  -19.7691  -33.3240  -20.5058 C   0  0  0  0  0  0  0  0  0  0  0  0
  -19.9128  -32.5241  -21.6377 C   0  0  0  0  0  0  0  0  0  0  0  0
  -20.9454  -32.7586  -22.5596 C   0  0  0  0  0  0  0  0  0  0  0  0
  -21.9101  -33.7584  -22.2933 C   0  0  0  0  0  0  0  0  0  0  0  0
  -23.1823  -34.1495  -22.8447 C   0  0  0  0  0  0  0  0  0  0  0  0
  -24.1109  -33.5532  -23.8092 C   0  0  0  0  0  0  0  0  0  0  0  0
  -25.0189  -34.2041  -24.3209 O   0  0  0  0  0  0  0  0  0  0  0  0
  -23.9706  -32.1996  -24.0316 O   0  0  0  0  0  0  0  0  0  0  0  0
  -25.2491  -31.5491  -24.3134 C   0  0  0  0  0  0  0  0  0  0  0  0
  -25.2779  -29.9952  -24.3668 C   0  0  0  0  0  0  0  0  0  0  0  0
  -25.8443  -29.2668  -23.1822 C   0  0  0  0  0  0  0  0  0  0  0  0
  -26.7076  -29.7462  -22.3126 N   0  0  0  0  0  0  0  0  0  0  0  0
  -26.9416  -28.8077  -21.3256 C   0  0  0  0  0  0  0  0  0  0  0  0
  -26.2463  -27.6234  -21.4437 C   0  0  0  0  0  0  0  0  0  0  0  0
  -25.3181  -27.6376  -22.8850 S   0  0  0  0  0  0  0  0  0  0  0  0
  -23.5129  -35.3022  -22.1509 C   0  0  0  0  0  0  0  0  0  0  0  0
  -22.6382  -35.5567  -21.1503 O   0  0  0  0  0  0  0  0  0  0  0  0
  -21.6877  -34.5821  -21.1824 C   0  0  0  0  0  0  0  0  0  0  0  0
  1  2  1  0
  2  3  1  0
  3  4  2  0
  4  5  1  0
  5  6  2  0
  6  7  1  0
  7  8  1  0
  8  9  1  0
  9 10  2  0
  9 11  1  0
 11 12  1  0
 12 13  1  0
 13 14  1  0
 14 15  2  0
 15 16  1  0
 16 17  2  0
 17 18  1  0
  8 19  2  0
 19 20  1  0
 20 21  1  0
 21  3  1  0
 21  7  2  0
 18 14  1  0
M  END
>  <HIPPO Pose ID>  (482) 
155777

>  <fragmenstein_outcome>  (482) 
acceptable

>  <energy_score>  (482) 
-43.474326

>  <distance_score>  (482) 
0.861111

>  <fragmenstein_mode>  (482) 
expansion

>  <HIPPO Compound ID>  (482) 
41293

>  <name>  (482) 
IQKDYIQGHYUFJH-UHFFFAOYSA-N

>  <ref_pdb>  (482) 
z0496a

>  <ref_mols>  (482) 
z0496a,3vws-b

>  <csv_name>  (482) 
RdRp_knitwork_green_site_rna_tunnel_pure_split4000_batch010.csv

>  <fragmenstein_runtime>  (482) 
2.559423

>  <tags>  (482) 
['Fragmenstein placed']

>  <original ID>  (482) 
IQKDYIQGHYUFJH-UHFFFAOYSA-N

>  <fragmenstein_error>  (482) 
None

>  <original SMILES>  (482) 
COc1cccc2c(C(=O)OCCc3nccs3)coc12

>  <inchikey>  (482) 
IQKDYIQGHYUFJH-UHFFFAOYSA-N

>  <SLURM_JOB_NAME>  (482) 
BulkDock.place:Flavi_NS5_RdRp:RdRp_knitwork_green_site_rna_tunnel_pure_split4000_batch010

>  <scratch_subdir>  (482) 
/opt/xchem-fragalysis-2/maxwin/BulkDock/SCRATCH/217081/C41293-P136

>  <alias>  (482) 
None

>  <SLURM_JOB_ID>  (482) 
217081

>  <exports>  (482) 
['/opt/xchem-fragalysis-2/maxwin/BulkDock/OUTPUTS/RdRp_knitwork_green_site_rna_tunnel_pure_split4000_batch010_217081.sdf']

$$$$
155833
     RDKit          3D

 20 22  0  0  0  0  0  0  0  0999 V2000
  -26.0968  -31.7801  -17.3571 C   0  0  0  0  0  0  0  0  0  0  0  0
  -27.0016  -31.1395  -18.3560 C   0  0  0  0  0  0  0  0  0  0  0  0
  -28.2243  -30.6196  -17.9383 C   0  0  0  0  0  0  0  0  0  0  0  0
  -29.1337  -30.0647  -18.7624 N   0  0  0  0  0  0  0  0  0  0  0  0
  -28.8166  -30.0266  -20.0703 C   0  0  0  0  0  0  0  0  0  0  0  0
  -27.6256  -30.5052  -20.5870 C   0  0  0  0  0  0  0  0  0  0  0  0
  -26.6960  -31.0643  -19.7202 C   0  0  0  0  0  0  0  0  0  0  0  0
  -25.4680  -31.5379  -20.1977 N   0  0  0  0  0  0  0  0  0  0  0  0
  -24.9151  -31.6385  -21.6666 C   0  0  0  0  0  0  0  0  0  0  0  0
  -25.3769  -31.2686  -22.6772 O   0  0  0  0  0  0  0  0  0  0  0  0
  -23.5656  -32.3480  -21.5175 C   0  0  0  0  0  0  0  0  0  0  0  0
  -22.7625  -32.5725  -22.7573 C   0  0  0  0  0  0  0  0  0  0  0  0
  -21.4378  -32.2069  -22.9186 C   0  0  0  0  0  0  0  0  0  0  0  0
  -20.9305  -32.6684  -24.0866 O   0  0  0  0  0  0  0  0  0  0  0  0
  -21.9364  -33.3267  -24.7163 C   0  0  0  0  0  0  0  0  0  0  0  0
  -21.8100  -33.9874  -25.9370 C   0  0  0  0  0  0  0  0  0  0  0  0
  -22.9521  -34.6309  -26.4135 C   0  0  0  0  0  0  0  0  0  0  0  0
  -24.1565  -34.5705  -25.7034 C   0  0  0  0  0  0  0  0  0  0  0  0
  -24.2493  -33.8946  -24.4743 C   0  0  0  0  0  0  0  0  0  0  0  0
  -23.1018  -33.2726  -23.9583 C   0  0  0  0  0  0  0  0  0  0  0  0
  1  2  1  0
  2  3  2  0
  3  4  1  0
  4  5  2  0
  5  6  1  0
  6  7  2  0
  7  8  1  0
  8  9  1  0
  9 10  2  0
  9 11  1  0
 11 12  1  0
 12 13  2  0
 13 14  1  0
 14 15  1  0
 15 16  2  0
 16 17  1  0
 17 18  2  0
 18 19  1  0
 19 20  2  0
  7  2  1  0
 20 12  1  0
 20 15  1  0
M  END
>  <HIPPO Pose ID>  (483) 
155833

>  <fragmenstein_outcome>  (483) 
acceptable

>  <energy_score>  (483) 
-54.996595

>  <distance_score>  (483) 
0.887184

>  <fragmenstein_mode>  (483) 
expansion

>  <HIPPO Compound ID>  (483) 
36458

>  <name>  (483) 
DEGPAYOEPZCOBR-UHFFFAOYSA-N

>  <ref_pdb>  (483) 
z0411a

>  <ref_mols>  (483) 
z0411a,3vws-a

>  <csv_name>  (483) 
RdRp_knitwork_green_site_rna_tunnel_pure_split4000_batch008.csv

>  <fragmenstein_runtime>  (483) 
5.697099

>  <tags>  (483) 
['Fragmenstein placed']

>  <original ID>  (483) 
DEGPAYOEPZCOBR-UHFFFAOYSA-N

>  <fragmenstein_error>  (483) 
None

>  <original SMILES>  (483) 
Cc1cnccc1NC(=O)Cc1coc2ccccc12

>  <inchikey>  (483) 
DEGPAYOEPZCOBR-UHFFFAOYSA-N

>  <SLURM_JOB_NAME>  (483) 
BulkDock.place:Flavi_NS5_RdRp:RdRp_knitwork_green_site_rna_tunnel_pure_split4000_batch008

>  <scratch_subdir>  (483) 
/opt/xchem-fragalysis-2/maxwin/BulkDock/SCRATCH/217079/C36458-P123

>  <alias>  (483) 
None

>  <SLURM_JOB_ID>  (483) 
217079

>  <exports>  (483) 
['/opt/xchem-fragalysis-2/maxwin/BulkDock/OUTPUTS/RdRp_knitwork_green_site_rna_tunnel_pure_split4000_batch008_217079.sdf']

$$$$
156338
     RDKit          3D

 25 27  0  0  0  0  0  0  0  0999 V2000
  -23.5284  -32.3419  -19.9256 C   0  0  0  0  0  0  0  0  0  0  0  0
  -24.0324  -32.3834  -21.3640 C   0  0  2  0  0  0  0  0  0  0  0  0
  -22.9421  -31.9364  -22.3456 C   0  0  0  0  0  0  0  0  0  0  0  0
  -22.5302  -32.9316  -23.3124 N   0  0  0  0  0  0  0  0  0  0  0  0
  -21.1473  -33.0219  -23.6928 C   0  0  0  0  0  0  0  0  0  0  0  0
  -21.1787  -33.4667  -25.1403 C   0  0  0  0  0  0  0  0  0  0  0  0
  -22.5385  -34.1212  -25.3160 C   0  0  0  0  0  0  0  0  0  0  0  0
  -23.3795  -33.3789  -24.3164 C   0  0  0  0  0  0  0  0  0  0  0  0
  -24.5832  -33.2147  -24.4051 O   0  0  0  0  0  0  0  0  0  0  0  0
  -25.1889  -31.5309  -21.5405 N   0  0  0  0  0  0  0  0  0  0  0  0
  -26.5925  -31.8556  -22.0409 C   0  0  0  0  0  0  0  0  0  0  0  0
  -27.0749  -32.8727  -22.3209 O   0  0  0  0  0  0  0  0  0  0  0  0
  -27.3293  -30.5795  -22.2490 C   0  0  0  0  0  0  0  0  0  0  0  0
  -27.9515  -29.8499  -21.3114 C   0  0  0  0  0  0  0  0  0  0  0  0
  -27.9429  -30.0586  -19.8654 C   0  0  0  0  0  0  0  0  0  0  0  0
  -29.1450  -30.2489  -19.1941 C   0  0  0  0  0  0  0  0  0  0  0  0
  -29.1529  -30.4215  -17.8074 C   0  0  0  0  0  0  0  0  0  0  0  0
  -27.9690  -30.4109  -17.0512 C   0  0  0  0  0  0  0  0  0  0  0  0
  -26.7623  -30.2225  -17.7434 C   0  0  0  0  0  0  0  0  0  0  0  0
  -26.7617  -30.0137  -19.1261 C   0  0  0  0  0  0  0  0  0  0  0  0
  -25.4495  -30.2531  -17.0126 C   0  0  0  0  0  0  0  0  0  0  0  0
  -25.5749  -31.2313  -15.8637 C   0  0  0  0  0  0  0  0  0  0  0  0
  -26.7086  -30.7853  -14.9632 C   0  0  0  0  0  0  0  0  0  0  0  0
  -27.9840  -30.6690  -15.6758 N   0  0  0  0  0  0  0  0  0  0  0  0
  -29.0325  -29.9961  -14.9310 C   0  0  0  0  0  0  0  0  0  0  0  0
  2  1  1  1
  2  3  1  0
  3  4  1  0
  4  5  1  0
  5  6  1  0
  6  7  1  0
  7  8  1  0
  8  9  2  0
  2 10  1  0
 10 11  1  0
 11 12  2  0
 11 13  1  0
 13 14  2  3
 14 15  1  0
 15 16  2  0
 16 17  1  0
 17 18  2  0
 18 19  1  0
 19 20  2  0
 19 21  1  0
 21 22  1  0
 22 23  1  0
 23 24  1  0
 24 25  1  0
  8  4  1  0
 20 15  1  0
 24 18  1  0
M  END
>  <HIPPO Pose ID>  (484) 
156338

>  <fragmenstein_outcome>  (484) 
acceptable

>  <energy_score>  (484) 
-54.619278

>  <distance_score>  (484) 
0.762527

>  <fragmenstein_mode>  (484) 
expansion

>  <HIPPO Compound ID>  (484) 
44380

>  <name>  (484) 
WZJPHEKPHALAMW-OAHLLOKOSA-N

>  <ref_pdb>  (484) 
z0904a

>  <ref_mols>  (484) 
z0904a,z1018a

>  <csv_name>  (484) 
RdRp_knitwork_green_site_rna_tunnel_pure_split4000_batch004.csv

>  <fragmenstein_runtime>  (484) 
6.674646

>  <tags>  (484) 
['Fragmenstein placed']

>  <original ID>  (484) 
WZJPHEKPHALAMW-OAHLLOKOSA-N

>  <fragmenstein_error>  (484) 
None

>  <original SMILES>  (484) 
C[C@H](CN1CCCC1=O)NC(=O)C=Cc1ccc2c(c1)CCCN2C

>  <inchikey>  (484) 
WZJPHEKPHALAMW-OAHLLOKOSA-N

>  <SLURM_JOB_NAME>  (484) 
BulkDock.place:Flavi_NS5_RdRp:RdRp_knitwork_green_site_rna_tunnel_pure_split4000_batch004

>  <scratch_subdir>  (484) 
/opt/xchem-fragalysis-2/maxwin/BulkDock/SCRATCH/217075/C44380-P7

>  <alias>  (484) 
None

>  <SLURM_JOB_ID>  (484) 
217075

>  <exports>  (484) 
['/opt/xchem-fragalysis-2/maxwin/BulkDock/OUTPUTS/RdRp_knitwork_green_site_rna_tunnel_pure_split4000_batch004_217075.sdf']

$$$$
156343
     RDKit          3D

 25 27  0  0  0  0  0  0  0  0999 V2000
  -22.6624  -32.8350  -19.4828 C   0  0  0  0  0  0  0  0  0  0  0  0
  -23.0087  -32.9729  -20.9612 C   0  0  2  0  0  0  0  0  0  0  0  0
  -21.8361  -32.5844  -21.8587 C   0  0  0  0  0  0  0  0  0  0  0  0
  -21.8801  -33.0772  -23.2373 N   0  0  0  0  0  0  0  0  0  0  0  0
  -20.6438  -33.0839  -23.9684 C   0  0  0  0  0  0  0  0  0  0  0  0
  -20.9777  -33.8386  -25.2268 C   0  0  0  0  0  0  0  0  0  0  0  0
  -22.3968  -33.3899  -25.5092 C   0  0  0  0  0  0  0  0  0  0  0  0
  -22.9372  -32.9974  -24.1497 C   0  0  0  0  0  0  0  0  0  0  0  0
  -24.0943  -32.6440  -23.9865 O   0  0  0  0  0  0  0  0  0  0  0  0
  -24.1025  -32.1095  -21.2796 N   0  0  0  0  0  0  0  0  0  0  0  0
  -25.5966  -32.3952  -21.3673 C   0  0  0  0  0  0  0  0  0  0  0  0
  -26.1935  -33.3571  -21.1216 O   0  0  0  0  0  0  0  0  0  0  0  0
  -26.1826  -31.1538  -21.9229 C   0  0  0  0  0  0  0  0  0  0  0  0
  -27.2068  -30.4812  -21.3791 C   0  0  0  0  0  0  0  0  0  0  0  0
  -27.4437  -30.4832  -19.9450 C   0  0  0  0  0  0  0  0  0  0  0  0
  -28.6835  -30.1732  -19.4125 C   0  0  0  0  0  0  0  0  0  0  0  0
  -28.7836  -29.9522  -18.0440 C   0  0  0  0  0  0  0  0  0  0  0  0
  -27.6503  -29.9843  -17.2043 C   0  0  0  0  0  0  0  0  0  0  0  0
  -26.4085  -30.2126  -17.7790 C   0  0  0  0  0  0  0  0  0  0  0  0
  -26.3189  -30.5131  -19.1149 C   0  0  0  0  0  0  0  0  0  0  0  0
  -25.1590  -30.0519  -16.9787 C   0  0  0  0  0  0  0  0  0  0  0  0
  -25.3523  -30.7304  -15.6527 C   0  0  0  0  0  0  0  0  0  0  0  0
  -26.6190  -30.2562  -14.9770 C   0  0  0  0  0  0  0  0  0  0  0  0
  -27.6981  -29.7772  -15.8388 N   0  0  0  0  0  0  0  0  0  0  0  0
  -29.0028  -29.6862  -15.2531 C   0  0  0  0  0  0  0  0  0  0  0  0
  2  1  1  1
  2  3  1  0
  3  4  1  0
  4  5  1  0
  5  6  1  0
  6  7  1  0
  7  8  1  0
  8  9  2  0
  2 10  1  0
 10 11  1  0
 11 12  2  0
 11 13  1  0
 13 14  2  3
 14 15  1  0
 15 16  2  0
 16 17  1  0
 17 18  2  0
 18 19  1  0
 19 20  2  0
 19 21  1  0
 21 22  1  0
 22 23  1  0
 23 24  1  0
 24 25  1  0
  8  4  1  0
 20 15  1  0
 24 18  1  0
M  END
>  <HIPPO Pose ID>  (485) 
156343

>  <fragmenstein_outcome>  (485) 
acceptable

>  <energy_score>  (485) 
-45.359245

>  <distance_score>  (485) 
0.980877

>  <fragmenstein_mode>  (485) 
expansion

>  <HIPPO Compound ID>  (485) 
44380

>  <name>  (485) 
WZJPHEKPHALAMW-OAHLLOKOSA-N

>  <ref_pdb>  (485) 
z1018a

>  <ref_mols>  (485) 
z0904a,z1018a

>  <csv_name>  (485) 
RdRp_knitwork_green_site_rna_tunnel_pure_split4000_batch004.csv

>  <fragmenstein_runtime>  (485) 
7.591255

>  <tags>  (485) 
['Fragmenstein placed']

>  <original ID>  (485) 
WZJPHEKPHALAMW-OAHLLOKOSA-N

>  <fragmenstein_error>  (485) 
None

>  <original SMILES>  (485) 
C[C@H](CN1CCCC1=O)NC(=O)C=Cc1ccc2c(c1)CCCN2C

>  <inchikey>  (485) 
WZJPHEKPHALAMW-OAHLLOKOSA-N

>  <SLURM_JOB_NAME>  (485) 
BulkDock.place:Flavi_NS5_RdRp:RdRp_knitwork_green_site_rna_tunnel_pure_split4000_batch004

>  <scratch_subdir>  (485) 
/opt/xchem-fragalysis-2/maxwin/BulkDock/SCRATCH/217075/C44380-P206

>  <alias>  (485) 
None

>  <SLURM_JOB_ID>  (485) 
217075

>  <exports>  (485) 
['/opt/xchem-fragalysis-2/maxwin/BulkDock/OUTPUTS/RdRp_knitwork_green_site_rna_tunnel_pure_split4000_batch004_217075.sdf']

$$$$
156505
     RDKit          3D

 21 23  0  0  0  0  0  0  0  0999 V2000
  -26.8167  -31.1640  -22.0633 O   0  0  0  0  0  0  0  0  0  0  0  0
  -27.7851  -31.7848  -22.4740 C   0  0  0  0  0  0  0  0  0  0  0  0
  -29.0411  -31.6752  -21.9626 O   0  0  0  0  0  0  0  0  0  0  0  0
  -29.0496  -31.4187  -20.5421 C   0  0  0  0  0  0  0  0  0  0  0  0
  -29.3231  -29.9809  -20.0925 C   0  0  0  0  0  0  0  0  0  0  0  0
  -28.7789  -29.7516  -18.7336 N   0  0  0  0  0  0  0  0  0  0  0  0
  -29.5890  -30.1923  -17.5916 C   0  0  0  0  0  0  0  0  0  0  0  0
  -28.7443  -30.6055  -16.3942 C   0  0  0  0  0  0  0  0  0  0  0  0
  -27.8183  -29.4935  -15.9927 C   0  0  0  0  0  0  0  0  0  0  0  0
  -27.0017  -29.0943  -17.1910 C   0  0  0  0  0  0  0  0  0  0  0  0
  -25.7318  -28.5542  -16.9545 C   0  0  0  0  0  0  0  0  0  0  0  0
  -25.0207  -27.9752  -17.9916 C   0  0  0  0  0  0  0  0  0  0  0  0
  -25.5187  -28.0244  -19.2817 C   0  0  0  0  0  0  0  0  0  0  0  0
  -26.7420  -28.6500  -19.5317 C   0  0  0  0  0  0  0  0  0  0  0  0
  -27.5331  -29.1782  -18.5004 C   0  0  0  0  0  0  0  0  0  0  0  0
  -27.6867  -32.8378  -23.5360 C   0  0  0  0  0  0  0  0  0  0  0  0
  -26.6860  -33.7989  -23.4193 C   0  0  0  0  0  0  0  0  0  0  0  0
  -26.6195  -34.8380  -24.3441 C   0  0  0  0  0  0  0  0  0  0  0  0
  -27.5639  -34.9012  -25.3550 C   0  0  0  0  0  0  0  0  0  0  0  0
  -28.5210  -33.9048  -25.4083 C   0  0  0  0  0  0  0  0  0  0  0  0
  -28.5857  -32.8524  -24.5485 N   0  0  0  0  0  0  0  0  0  0  0  0
  1  2  2  0
  2  3  1  0
  3  4  1  0
  4  5  1  0
  5  6  1  0
  6  7  1  0
  7  8  1  0
  8  9  1  0
  9 10  1  0
 10 11  2  0
 11 12  1  0
 12 13  2  0
 13 14  1  0
 14 15  2  0
  2 16  1  0
 16 17  2  0
 17 18  1  0
 18 19  2  0
 19 20  1  0
 20 21  2  0
 15  6  1  0
 21 16  1  0
 15 10  1  0
M  END
>  <HIPPO Pose ID>  (486) 
156505

>  <fragmenstein_outcome>  (486) 
acceptable

>  <energy_score>  (486) 
-37.018204

>  <distance_score>  (486) 
0.752238

>  <fragmenstein_mode>  (486) 
expansion

>  <HIPPO Compound ID>  (486) 
56621

>  <name>  (486) 
VMPGHDIFNKPMGG-UHFFFAOYSA-N

>  <ref_pdb>  (486) 
z0165a

>  <ref_mols>  (486) 
z0165a,d0472b

>  <csv_name>  (486) 
RdRp_knitwork_green_site_rna_tunnel_pure_split4000_batch001.csv

>  <fragmenstein_runtime>  (486) 
5.721917

>  <tags>  (486) 
['Fragmenstein placed']

>  <original ID>  (486) 
VMPGHDIFNKPMGG-UHFFFAOYSA-N

>  <fragmenstein_error>  (486) 
None

>  <original SMILES>  (486) 
O=C(OCCN1CCCc2ccccc21)c1ccccn1

>  <inchikey>  (486) 
VMPGHDIFNKPMGG-UHFFFAOYSA-N

>  <SLURM_JOB_NAME>  (486) 
BulkDock.place:Flavi_NS5_RdRp:RdRp_knitwork_green_site_rna_tunnel_pure_split4000_batch001

>  <scratch_subdir>  (486) 
/opt/xchem-fragalysis-2/maxwin/BulkDock/SCRATCH/217072/C56621-P3

>  <alias>  (486) 
None

>  <SLURM_JOB_ID>  (486) 
217072

>  <exports>  (486) 
['/opt/xchem-fragalysis-2/maxwin/BulkDock/OUTPUTS/RdRp_knitwork_green_site_rna_tunnel_pure_split4000_batch001_217072.sdf']

$$$$
156526
     RDKit          3D

 19 21  0  0  0  0  0  0  0  0999 V2000
  -25.6196  -32.8150  -17.9952 O   0  0  0  0  0  0  0  0  0  0  0  0
  -26.1674  -31.6864  -17.3171 C   0  0  0  0  0  0  0  0  0  0  0  0
  -27.2625  -31.0740  -18.1297 C   0  0  0  0  0  0  0  0  0  0  0  0
  -28.5141  -30.8800  -17.5539 C   0  0  0  0  0  0  0  0  0  0  0  0
  -29.5927  -30.4286  -18.2206 N   0  0  0  0  0  0  0  0  0  0  0  0
  -29.4125  -30.1278  -19.5195 C   0  0  0  0  0  0  0  0  0  0  0  0
  -28.1946  -30.2111  -20.1674 C   0  0  0  0  0  0  0  0  0  0  0  0
  -27.0952  -30.7281  -19.4786 C   0  0  0  0  0  0  0  0  0  0  0  0
  -25.8359  -30.8768  -20.1093 N   0  0  0  0  0  0  0  0  0  0  0  0
  -25.9237  -31.5932  -21.3839 C   0  0  0  0  0  0  0  0  0  0  0  0
  -24.6512  -31.9956  -22.0136 C   0  0  0  0  0  0  0  0  0  0  0  0
  -23.3171  -31.9098  -21.6896 C   0  0  0  0  0  0  0  0  0  0  0  0
  -22.6087  -32.4071  -22.8147 C   0  0  0  0  0  0  0  0  0  0  0  0
  -21.2631  -32.5310  -23.1710 C   0  0  0  0  0  0  0  0  0  0  0  0
  -20.9655  -33.0738  -24.4277 C   0  0  0  0  0  0  0  0  0  0  0  0
  -21.9621  -33.5037  -25.3072 C   0  0  0  0  0  0  0  0  0  0  0  0
  -23.3065  -33.3838  -24.9680 C   0  0  0  0  0  0  0  0  0  0  0  0
  -23.5700  -32.8214  -23.7240 C   0  0  0  0  0  0  0  0  0  0  0  0
  -24.8039  -32.5888  -23.2287 O   0  0  0  0  0  0  0  0  0  0  0  0
  1  2  1  0
  2  3  1  0
  3  4  2  0
  4  5  1  0
  5  6  2  0
  6  7  1  0
  7  8  2  0
  8  9  1  0
  9 10  1  0
 10 11  1  0
 11 12  2  0
 12 13  1  0
 13 14  2  0
 14 15  1  0
 15 16  2  0
 16 17  1  0
 17 18  2  0
 18 19  1  0
  8  3  1  0
 19 11  1  0
 18 13  1  0
M  END
>  <HIPPO Pose ID>  (487) 
156526

>  <fragmenstein_outcome>  (487) 
acceptable

>  <energy_score>  (487) 
-34.327368

>  <distance_score>  (487) 
0.772838

>  <fragmenstein_mode>  (487) 
expansion

>  <HIPPO Compound ID>  (487) 
34405

>  <name>  (487) 
HIPPCKFEMUIDIK-UHFFFAOYSA-N

>  <ref_pdb>  (487) 
z0411a

>  <ref_mols>  (487) 
z0411a,3vws-a

>  <csv_name>  (487) 
RdRp_knitwork_green_site_rna_tunnel_pure_split4000_batch008.csv

>  <fragmenstein_runtime>  (487) 
19.874023

>  <tags>  (487) 
['Fragmenstein placed']

>  <original ID>  (487) 
HIPPCKFEMUIDIK-UHFFFAOYSA-N

>  <fragmenstein_error>  (487) 
None

>  <original SMILES>  (487) 
OCc1cnccc1NCc1cc2ccccc2o1

>  <inchikey>  (487) 
HIPPCKFEMUIDIK-UHFFFAOYSA-N

>  <SLURM_JOB_NAME>  (487) 
BulkDock.place:Flavi_NS5_RdRp:RdRp_knitwork_green_site_rna_tunnel_pure_split4000_batch008

>  <scratch_subdir>  (487) 
/opt/xchem-fragalysis-2/maxwin/BulkDock/SCRATCH/217079/C34405-P123

>  <alias>  (487) 
None

>  <SLURM_JOB_ID>  (487) 
217079

>  <exports>  (487) 
['/opt/xchem-fragalysis-2/maxwin/BulkDock/OUTPUTS/RdRp_knitwork_green_site_rna_tunnel_pure_split4000_batch008_217079.sdf']

$$$$
156779
     RDKit          3D

 24 27  0  0  0  0  0  0  0  0999 V2000
  -24.9812  -28.2916  -17.2211 C   0  0  0  0  0  0  0  0  0  0  0  0
  -25.4794  -27.7710  -18.4067 C   0  0  0  0  0  0  0  0  0  0  0  0
  -26.7481  -28.1502  -18.8384 C   0  0  0  0  0  0  0  0  0  0  0  0
  -27.5364  -29.0580  -18.1092 C   0  0  0  0  0  0  0  0  0  0  0  0
  -27.0321  -29.5190  -16.8772 C   0  0  0  0  0  0  0  0  0  0  0  0
  -25.7459  -29.1643  -16.4579 C   0  0  0  0  0  0  0  0  0  0  0  0
  -27.8555  -30.4185  -15.9988 C   0  0  0  0  0  0  0  0  0  0  0  0
  -29.3288  -30.1573  -16.2528 C   0  0  0  0  0  0  0  0  0  0  0  0
  -29.6293  -30.3075  -17.7334 C   0  0  0  0  0  0  0  0  0  0  0  0
  -28.7897  -29.4572  -18.5811 N   0  0  0  0  0  0  0  0  0  0  0  0
  -28.9336  -29.7103  -20.0338 C   0  0  0  0  0  0  0  0  0  0  0  0
  -27.8370  -30.6669  -20.5684 C   0  0  0  0  0  0  0  0  0  0  0  0
  -28.0910  -31.2152  -21.9145 N   0  0  0  0  0  0  0  0  0  0  0  0
  -29.1697  -32.1871  -21.8965 C   0  0  0  0  0  0  0  0  0  0  0  0
  -28.9381  -33.4300  -22.7776 C   0  0  0  0  0  0  0  0  0  0  0  0
  -28.3804  -33.0029  -24.1215 C   0  0  0  0  0  0  0  0  0  0  0  0
  -27.0254  -32.3317  -23.9215 C   0  0  2  0  0  0  0  0  0  0  0  0
  -25.9441  -33.2768  -24.4285 C   0  0  0  0  0  0  0  0  0  0  0  0
  -25.3713  -33.0646  -25.6865 C   0  0  0  0  0  0  0  0  0  0  0  0
  -24.4271  -33.9635  -26.1647 C   0  0  0  0  0  0  0  0  0  0  0  0
  -24.0110  -35.0468  -25.4811 N   0  0  0  0  0  0  0  0  0  0  0  0
  -24.5911  -35.2597  -24.2835 C   0  0  0  0  0  0  0  0  0  0  0  0
  -25.5523  -34.4245  -23.7314 C   0  0  0  0  0  0  0  0  0  0  0  0
  -26.8931  -31.8268  -22.4588 C   0  0  0  0  0  0  0  0  0  0  0  0
  1  2  2  0
  2  3  1  0
  3  4  2  0
  4  5  1  0
  5  6  2  0
  5  7  1  0
  7  8  1  0
  8  9  1  0
  9 10  1  0
 10 11  1  0
 11 12  1  0
 12 13  1  0
 13 14  1  0
 14 15  1  0
 15 16  1  0
 16 17  1  0
 17 18  1  1
 18 19  2  0
 19 20  1  0
 20 21  2  0
 21 22  1  0
 22 23  2  0
 17 24  1  0
  6  1  1  0
 24 13  1  0
 10  4  1  0
 23 18  1  0
M  END
>  <HIPPO Pose ID>  (488) 
156779

>  <fragmenstein_outcome>  (488) 
acceptable

>  <energy_score>  (488) 
-36.720072

>  <distance_score>  (488) 
0.77809

>  <fragmenstein_mode>  (488) 
expansion

>  <HIPPO Compound ID>  (488) 
57095

>  <name>  (488) 
CRCRMZHTKFWBPT-FQEVSTJZSA-N

>  <ref_pdb>  (488) 
z0165a

>  <ref_mols>  (488) 
z0165a,d0472b

>  <csv_name>  (488) 
RdRp_knitwork_green_site_rna_tunnel_pure_split4000_batch001.csv

>  <fragmenstein_runtime>  (488) 
4.536618

>  <tags>  (488) 
['Fragmenstein placed']

>  <original ID>  (488) 
CRCRMZHTKFWBPT-FQEVSTJZSA-N

>  <fragmenstein_error>  (488) 
None

>  <original SMILES>  (488) 
c1ccc2c(c1)CCCN2CCN1CCC[C@H](c2ccncc2)C1

>  <inchikey>  (488) 
CRCRMZHTKFWBPT-FQEVSTJZSA-N

>  <SLURM_JOB_NAME>  (488) 
BulkDock.place:Flavi_NS5_RdRp:RdRp_knitwork_green_site_rna_tunnel_pure_split4000_batch001

>  <scratch_subdir>  (488) 
/opt/xchem-fragalysis-2/maxwin/BulkDock/SCRATCH/217072/C57095-P3

>  <alias>  (488) 
None

>  <SLURM_JOB_ID>  (488) 
217072

>  <exports>  (488) 
['/opt/xchem-fragalysis-2/maxwin/BulkDock/OUTPUTS/RdRp_knitwork_green_site_rna_tunnel_pure_split4000_batch001_217072.sdf']

$$$$
157418
     RDKit          3D

 17 18  0  0  0  0  0  0  0  0999 V2000
  -24.4318  -29.7672  -16.1130 C   0  0  0  0  0  0  0  0  0  0  0  0
  -25.5723  -30.7791  -16.1562 C   0  0  0  0  0  0  0  0  0  0  0  0
  -26.4966  -30.4770  -17.2613 N   0  0  0  0  0  0  0  0  0  0  0  0
  -27.5758  -29.5594  -16.9413 C   0  0  0  0  0  0  0  0  0  0  0  0
  -28.7607  -30.3036  -16.3365 C   0  0  0  0  0  0  0  0  0  0  0  0
  -26.1091  -30.8922  -18.5101 C   0  0  0  0  0  0  0  0  0  0  0  0
  -24.9717  -31.5487  -18.6737 N   0  0  0  0  0  0  0  0  0  0  0  0
  -24.7346  -31.6396  -19.9981 C   0  0  0  0  0  0  0  0  0  0  0  0
  -25.7489  -31.0492  -20.6971 C   0  0  0  0  0  0  0  0  0  0  0  0
  -25.7635  -30.9371  -22.1009 C   0  0  0  0  0  0  0  0  0  0  0  0
  -25.7762  -30.8199  -23.2544 N   0  0  0  0  0  0  0  0  0  0  0  0
  -26.7184  -30.6711  -19.7702 N   0  0  0  0  0  0  0  0  0  0  0  0
  -28.0446  -30.2299  -20.1097 C   0  0  0  0  0  0  0  0  0  0  0  0
  -28.5251  -29.7627  -21.3486 C   0  0  0  0  0  0  0  0  0  0  0  0
  -29.8713  -29.5671  -21.1564 C   0  0  0  0  0  0  0  0  0  0  0  0
  -30.1327  -29.9370  -19.8774 N   0  0  0  0  0  0  0  0  0  0  0  0
  -29.0388  -30.3339  -19.2230 N   0  0  0  0  0  0  0  0  0  0  0  0
  1  2  1  0
  2  3  1  0
  3  4  1  0
  4  5  1  0
  3  6  1  0
  6  7  2  0
  7  8  1  0
  8  9  2  0
  9 10  1  0
 10 11  3  0
  9 12  1  0
 12 13  1  0
 13 14  1  0
 14 15  2  0
 15 16  1  0
 16 17  1  0
 12  6  1  0
 17 13  2  0
M  END
>  <HIPPO Pose ID>  (489) 
157418

>  <fragmenstein_outcome>  (489) 
acceptable

>  <energy_score>  (489) 
-41.225254

>  <distance_score>  (489) 
0.836405

>  <fragmenstein_mode>  (489) 
expansion

>  <HIPPO Compound ID>  (489) 
44797

>  <name>  (489) 
WUPJRJUXZWKBHF-UHFFFAOYSA-N

>  <ref_pdb>  (489) 
z0521a

>  <ref_mols>  (489) 
z0521a,z0936a

>  <csv_name>  (489) 
RdRp_knitwork_green_site_rna_tunnel_pure_split4000_batch010.csv

>  <fragmenstein_runtime>  (489) 
4.037446

>  <tags>  (489) 
['Fragmenstein placed']

>  <original ID>  (489) 
WUPJRJUXZWKBHF-UHFFFAOYSA-N

>  <fragmenstein_error>  (489) 
None

>  <original SMILES>  (489) 
CCN(CC)c1ncc(C#N)n1-c1cc[nH]n1

>  <inchikey>  (489) 
WUPJRJUXZWKBHF-UHFFFAOYSA-N

>  <SLURM_JOB_NAME>  (489) 
BulkDock.place:Flavi_NS5_RdRp:RdRp_knitwork_green_site_rna_tunnel_pure_split4000_batch010

>  <scratch_subdir>  (489) 
/opt/xchem-fragalysis-2/maxwin/BulkDock/SCRATCH/217081/C44797-P141

>  <alias>  (489) 
None

>  <SLURM_JOB_ID>  (489) 
217081

>  <exports>  (489) 
['/opt/xchem-fragalysis-2/maxwin/BulkDock/OUTPUTS/RdRp_knitwork_green_site_rna_tunnel_pure_split4000_batch010_217081.sdf']

$$$$
157426
     RDKit          3D

 17 18  0  0  0  0  0  0  0  0999 V2000
  -24.4088  -30.0354  -16.3124 C   0  0  0  0  0  0  0  0  0  0  0  0
  -25.6111  -30.9400  -16.5281 C   0  0  0  0  0  0  0  0  0  0  0  0
  -26.5418  -30.4292  -17.5579 N   0  0  0  0  0  0  0  0  0  0  0  0
  -27.4507  -29.3764  -17.1078 C   0  0  0  0  0  0  0  0  0  0  0  0
  -28.6300  -29.9197  -16.3066 C   0  0  0  0  0  0  0  0  0  0  0  0
  -26.1576  -30.6080  -18.8738 C   0  0  0  0  0  0  0  0  0  0  0  0
  -24.9503  -31.0647  -19.1856 N   0  0  0  0  0  0  0  0  0  0  0  0
  -24.8904  -31.2170  -20.5329 C   0  0  0  0  0  0  0  0  0  0  0  0
  -26.0500  -30.7768  -21.1175 C   0  0  0  0  0  0  0  0  0  0  0  0
  -26.2658  -30.7290  -22.5150 C   0  0  0  0  0  0  0  0  0  0  0  0
  -26.4461  -30.6285  -23.6580 N   0  0  0  0  0  0  0  0  0  0  0  0
  -26.9230  -30.4222  -20.0778 N   0  0  0  0  0  0  0  0  0  0  0  0
  -28.3268  -30.1540  -20.2649 C   0  0  0  0  0  0  0  0  0  0  0  0
  -29.0332  -29.9831  -21.4751 C   0  0  0  0  0  0  0  0  0  0  0  0
  -30.3542  -29.8958  -21.1142 C   0  0  0  0  0  0  0  0  0  0  0  0
  -30.3778  -29.9990  -19.7627 N   0  0  0  0  0  0  0  0  0  0  0  0
  -29.1647  -30.1619  -19.2265 N   0  0  0  0  0  0  0  0  0  0  0  0
  1  2  1  0
  2  3  1  0
  3  4  1  0
  4  5  1  0
  3  6  1  0
  6  7  2  0
  7  8  1  0
  8  9  2  0
  9 10  1  0
 10 11  3  0
  9 12  1  0
 12 13  1  0
 13 14  1  0
 14 15  2  0
 15 16  1  0
 16 17  1  0
 12  6  1  0
 17 13  2  0
M  END
>  <HIPPO Pose ID>  (490) 
157426

>  <fragmenstein_outcome>  (490) 
acceptable

>  <energy_score>  (490) 
-41.259273

>  <distance_score>  (490) 
0.887032

>  <fragmenstein_mode>  (490) 
expansion

>  <HIPPO Compound ID>  (490) 
44797

>  <name>  (490) 
WUPJRJUXZWKBHF-UHFFFAOYSA-N

>  <ref_pdb>  (490) 
z0936a

>  <ref_mols>  (490) 
z0521a,z0936a

>  <csv_name>  (490) 
RdRp_knitwork_green_site_rna_tunnel_pure_split4000_batch010.csv

>  <fragmenstein_runtime>  (490) 
2.193166

>  <tags>  (490) 
['Fragmenstein placed']

>  <original ID>  (490) 
WUPJRJUXZWKBHF-UHFFFAOYSA-N

>  <fragmenstein_error>  (490) 
None

>  <original SMILES>  (490) 
CCN(CC)c1ncc(C#N)n1-c1cc[nH]n1

>  <inchikey>  (490) 
WUPJRJUXZWKBHF-UHFFFAOYSA-N

>  <SLURM_JOB_NAME>  (490) 
BulkDock.place:Flavi_NS5_RdRp:RdRp_knitwork_green_site_rna_tunnel_pure_split4000_batch010

>  <scratch_subdir>  (490) 
/opt/xchem-fragalysis-2/maxwin/BulkDock/SCRATCH/217081/C44797-P196

>  <alias>  (490) 
None

>  <SLURM_JOB_ID>  (490) 
217081

>  <exports>  (490) 
['/opt/xchem-fragalysis-2/maxwin/BulkDock/OUTPUTS/RdRp_knitwork_green_site_rna_tunnel_pure_split4000_batch010_217081.sdf']

$$$$
157550
     RDKit          3D

 23 26  0  0  0  0  0  0  0  0999 V2000
  -25.9043  -27.9510  -17.8668 C   0  0  0  0  0  0  0  0  0  0  0  0
  -26.2044  -28.6379  -19.0162 C   0  0  0  0  0  0  0  0  0  0  0  0
  -25.3613  -29.6947  -19.3728 C   0  0  0  0  0  0  0  0  0  0  0  0
  -25.8547  -30.7032  -20.3882 C   0  0  1  0  0  0  0  0  0  0  0  0
  -25.2767  -32.1139  -20.2357 C   0  0  0  0  0  0  0  0  0  0  0  0
  -25.7467  -32.7221  -18.9086 C   0  0  2  0  0  0  0  0  0  0  0  0
  -25.1467  -34.0436  -18.7771 N   0  0  0  0  0  0  0  0  0  0  0  0
  -24.5521  -34.2792  -17.4624 C   0  0  0  0  0  0  0  0  0  0  0  0
  -23.3408  -33.4384  -17.1281 C   0  0  0  0  0  0  0  0  0  0  0  0
  -22.2431  -33.4121  -18.0047 C   0  0  0  0  0  0  0  0  0  0  0  0
  -21.0814  -32.6949  -17.7053 C   0  0  0  0  0  0  0  0  0  0  0  0
  -21.0685  -32.0147  -16.4920 C   0  0  0  0  0  0  0  0  0  0  0  0
  -20.0375  -31.2595  -16.0266 O   0  0  0  0  0  0  0  0  0  0  0  0
  -20.4212  -30.7632  -14.8220 C   0  0  0  0  0  0  0  0  0  0  0  0
  -21.6862  -31.2007  -14.4998 C   0  0  0  0  0  0  0  0  0  0  0  0
  -22.1200  -32.0109  -15.5839 C   0  0  0  0  0  0  0  0  0  0  0  0
  -23.2811  -32.7397  -15.9025 C   0  0  0  0  0  0  0  0  0  0  0  0
  -27.2691  -32.7669  -18.9185 C   0  0  0  0  0  0  0  0  0  0  0  0
  -27.8186  -31.3723  -19.1310 C   0  0  0  0  0  0  0  0  0  0  0  0
  -27.2971  -30.7851  -20.3264 O   0  0  0  0  0  0  0  0  0  0  0  0
  -24.1445  -29.8571  -18.6924 C   0  0  0  0  0  0  0  0  0  0  0  0
  -23.9104  -29.0959  -17.5703 C   0  0  0  0  0  0  0  0  0  0  0  0
  -24.7936  -28.1828  -17.1233 N   0  0  0  0  0  0  0  0  0  0  0  0
  1  2  2  0
  2  3  1  0
  4  3  1  1
  4  5  1  0
  5  6  1  0
  6  7  1  6
  7  8  1  0
  8  9  1  0
  9 10  2  0
 10 11  1  0
 11 12  2  0
 12 13  1  0
 13 14  1  0
 14 15  2  0
 15 16  1  0
 16 17  2  0
  6 18  1  0
 18 19  1  0
 19 20  1  0
  3 21  2  0
 21 22  1  0
 22 23  2  0
 23  1  1  0
 20  4  1  0
 17  9  1  0
 16 12  1  0
M  END
>  <HIPPO Pose ID>  (491) 
157550

>  <fragmenstein_outcome>  (491) 
acceptable

>  <energy_score>  (491) 
-44.740469

>  <distance_score>  (491) 
0.977978

>  <fragmenstein_mode>  (491) 
expansion

>  <HIPPO Compound ID>  (491) 
32168

>  <name>  (491) 
QWMQZQGOZXRUKM-IEBWSBKVSA-N

>  <ref_pdb>  (491) 
3vws-a

>  <ref_mols>  (491) 
z0411a,3vws-a

>  <csv_name>  (491) 
RdRp_knitwork_green_site_rna_tunnel_pure_split4000_batch008.csv

>  <fragmenstein_runtime>  (491) 
4.054411

>  <tags>  (491) 
['Fragmenstein placed']

>  <original ID>  (491) 
QWMQZQGOZXRUKM-IEBWSBKVSA-N

>  <fragmenstein_error>  (491) 
None

>  <original SMILES>  (491) 
c1cc([C@H]2C[C@H](NCc3ccc4occc4c3)CCO2)ccn1

>  <inchikey>  (491) 
QWMQZQGOZXRUKM-IEBWSBKVSA-N

>  <SLURM_JOB_NAME>  (491) 
BulkDock.place:Flavi_NS5_RdRp:RdRp_knitwork_green_site_rna_tunnel_pure_split4000_batch008

>  <scratch_subdir>  (491) 
/opt/xchem-fragalysis-2/maxwin/BulkDock/SCRATCH/217079/C32168-P218

>  <alias>  (491) 
None

>  <SLURM_JOB_ID>  (491) 
217079

>  <exports>  (491) 
['/opt/xchem-fragalysis-2/maxwin/BulkDock/OUTPUTS/RdRp_knitwork_green_site_rna_tunnel_pure_split4000_batch008_217079.sdf']

$$$$
157692
     RDKit          3D

 24 26  0  0  0  0  0  0  0  0999 V2000
  -22.7757  -31.2621  -12.9386 C   0  0  0  0  0  0  0  0  0  0  0  0
  -21.8356  -30.4785  -13.6832 N   0  0  0  0  0  0  0  0  0  0  0  0
  -21.0416  -29.5841  -12.8253 C   0  0  0  0  0  0  0  0  0  0  0  0
  -21.0538  -31.1158  -14.6555 C   0  0  0  0  0  0  0  0  0  0  0  0
  -19.7668  -30.6819  -14.7102 N   0  0  0  0  0  0  0  0  0  0  0  0
  -18.9191  -31.1513  -15.6333 C   0  0  0  0  0  0  0  0  0  0  0  0
  -19.2837  -32.1065  -16.5465 C   0  0  0  0  0  0  0  0  0  0  0  0
  -20.5882  -32.5831  -16.5080 C   0  0  0  0  0  0  0  0  0  0  0  0
  -21.5191  -32.0874  -15.5739 C   0  0  0  0  0  0  0  0  0  0  0  0
  -22.9506  -32.5972  -15.6059 C   0  0  0  0  0  0  0  0  0  0  0  0
  -23.3872  -33.4943  -16.7682 C   0  0  0  0  0  0  0  0  0  0  0  0
  -24.8299  -33.7642  -16.6898 N   0  0  0  0  0  0  0  0  0  0  0  0
  -25.6234  -34.2871  -18.0600 S   0  0  0  0  0  0  0  0  0  0  0  0
  -26.9167  -34.8214  -17.6989 O   0  0  0  0  0  0  0  0  0  0  0  0
  -24.7038  -35.0536  -18.8685 O   0  0  0  0  0  0  0  0  0  0  0  0
  -25.9177  -32.7429  -18.8741 C   0  0  0  0  0  0  0  0  0  0  0  0
  -27.0158  -31.9589  -18.4946 C   0  0  0  0  0  0  0  0  0  0  0  0
  -27.2561  -30.7273  -19.1088 C   0  0  0  0  0  0  0  0  0  0  0  0
  -26.3482  -30.3462  -20.0909 C   0  0  0  0  0  0  0  0  0  0  0  0
  -26.3925  -29.1860  -20.8006 O   0  0  0  0  0  0  0  0  0  0  0  0
  -25.3518  -29.2325  -21.6657 C   0  0  0  0  0  0  0  0  0  0  0  0
  -24.6252  -30.3870  -21.5235 C   0  0  0  0  0  0  0  0  0  0  0  0
  -25.2648  -31.1178  -20.5003 C   0  0  0  0  0  0  0  0  0  0  0  0
  -25.0392  -32.3542  -19.8910 C   0  0  0  0  0  0  0  0  0  0  0  0
  1  2  1  0
  2  3  1  0
  2  4  1  0
  4  5  2  0
  5  6  1  0
  6  7  2  0
  7  8  1  0
  8  9  2  0
  9 10  1  0
 10 11  1  0
 11 12  1  0
 12 13  1  0
 13 14  2  0
 13 15  2  0
 13 16  1  0
 16 17  2  0
 17 18  1  0
 18 19  2  0
 19 20  1  0
 20 21  1  0
 21 22  2  0
 22 23  1  0
 23 24  2  0
  9  4  1  0
 24 16  1  0
 23 19  1  0
M  END
>  <HIPPO Pose ID>  (492) 
157692

>  <fragmenstein_outcome>  (492) 
acceptable

>  <energy_score>  (492) 
-44.795684

>  <distance_score>  (492) 
0.960599

>  <fragmenstein_mode>  (492) 
expansion

>  <HIPPO Compound ID>  (492) 
29732

>  <name>  (492) 
FVRIBDJZGWKKLO-UHFFFAOYSA-N

>  <ref_pdb>  (492) 
3vws-a

>  <ref_mols>  (492) 
z0411a,3vws-a

>  <csv_name>  (492) 
RdRp_knitwork_green_site_rna_tunnel_pure_split4000_batch008.csv

>  <fragmenstein_runtime>  (492) 
20.501056

>  <tags>  (492) 
['Fragmenstein placed']

>  <original ID>  (492) 
FVRIBDJZGWKKLO-UHFFFAOYSA-N

>  <fragmenstein_error>  (492) 
None

>  <original SMILES>  (492) 
CN(C)c1ncccc1CCNS(=O)(=O)c1ccc2occc2c1

>  <inchikey>  (492) 
FVRIBDJZGWKKLO-UHFFFAOYSA-N

>  <SLURM_JOB_NAME>  (492) 
BulkDock.place:Flavi_NS5_RdRp:RdRp_knitwork_green_site_rna_tunnel_pure_split4000_batch008

>  <scratch_subdir>  (492) 
/opt/xchem-fragalysis-2/maxwin/BulkDock/SCRATCH/217079/C29732-P218

>  <alias>  (492) 
None

>  <SLURM_JOB_ID>  (492) 
217079

>  <exports>  (492) 
['/opt/xchem-fragalysis-2/maxwin/BulkDock/OUTPUTS/RdRp_knitwork_green_site_rna_tunnel_pure_split4000_batch008_217079.sdf']

$$$$
157703
     RDKit          3D

 23 25  0  0  0  0  0  0  0  0999 V2000
  -23.3747  -32.6250  -21.4853 C   0  0  0  0  0  0  0  0  0  0  0  0
  -24.7848  -32.1505  -21.1796 C   0  0  0  0  0  0  0  0  0  0  0  0
  -24.7273  -30.7679  -19.9962 S   0  0  0  0  0  0  0  0  0  0  0  0
  -26.4688  -30.4871  -19.7472 C   0  0  0  0  0  0  0  0  0  0  0  0
  -26.9531  -29.2433  -20.1480 C   0  0  0  0  0  0  0  0  0  0  0  0
  -28.2477  -28.8621  -20.0783 N   0  0  0  0  0  0  0  0  0  0  0  0
  -29.1156  -29.7406  -19.5568 C   0  0  0  0  0  0  0  0  0  0  0  0
  -28.7465  -30.9809  -19.0957 C   0  0  0  0  0  0  0  0  0  0  0  0
  -27.4032  -31.3726  -19.1889 C   0  0  0  0  0  0  0  0  0  0  0  0
  -27.1408  -32.7527  -18.6666 C   0  0  0  0  0  0  0  0  0  0  0  0
  -28.0378  -33.4900  -18.6751 O   0  0  0  0  0  0  0  0  0  0  0  0
  -25.7093  -32.9444  -18.1830 N   0  0  0  0  0  0  0  0  0  0  0  0
  -25.0917  -34.0523  -17.5178 C   0  0  0  0  0  0  0  0  0  0  0  0
  -24.3922  -33.5680  -16.2667 C   0  0  0  0  0  0  0  0  0  0  0  0
  -23.0299  -32.9467  -16.3890 C   0  0  0  0  0  0  0  0  0  0  0  0
  -22.1473  -33.1915  -17.4486 C   0  0  0  0  0  0  0  0  0  0  0  0
  -20.8671  -32.6302  -17.4670 C   0  0  0  0  0  0  0  0  0  0  0  0
  -20.5186  -31.8406  -16.3755 C   0  0  0  0  0  0  0  0  0  0  0  0
  -19.3236  -31.2161  -16.2026 O   0  0  0  0  0  0  0  0  0  0  0  0
  -19.3910  -30.5531  -15.0180 C   0  0  0  0  0  0  0  0  0  0  0  0
  -20.6126  -30.7524  -14.4176 C   0  0  0  0  0  0  0  0  0  0  0  0
  -21.3507  -31.5834  -15.2960 C   0  0  0  0  0  0  0  0  0  0  0  0
  -22.6278  -32.1494  -15.2969 C   0  0  0  0  0  0  0  0  0  0  0  0
  1  2  1  0
  2  3  1  0
  3  4  1  0
  4  5  2  0
  5  6  1  0
  6  7  2  0
  7  8  1  0
  8  9  2  0
  9 10  1  0
 10 11  2  0
 10 12  1  0
 12 13  1  0
 13 14  1  0
 14 15  1  0
 15 16  2  0
 16 17  1  0
 17 18  2  0
 18 19  1  0
 19 20  1  0
 20 21  2  0
 21 22  1  0
 22 23  2  0
  9  4  1  0
 23 15  1  0
 22 18  1  0
M  END
>  <HIPPO Pose ID>  (493) 
157703

>  <fragmenstein_outcome>  (493) 
acceptable

>  <energy_score>  (493) 
-27.340274

>  <distance_score>  (493) 
0.956134

>  <fragmenstein_mode>  (493) 
expansion

>  <HIPPO Compound ID>  (493) 
29858

>  <name>  (493) 
UAODQRNGFNZVAJ-UHFFFAOYSA-N

>  <ref_pdb>  (493) 
3vws-a

>  <ref_mols>  (493) 
z0411a,3vws-a

>  <csv_name>  (493) 
RdRp_knitwork_green_site_rna_tunnel_pure_split4000_batch008.csv

>  <fragmenstein_runtime>  (493) 
3.410888

>  <tags>  (493) 
['Fragmenstein placed']

>  <original ID>  (493) 
UAODQRNGFNZVAJ-UHFFFAOYSA-N

>  <fragmenstein_error>  (493) 
None

>  <original SMILES>  (493) 
CCSc1cnccc1C(=O)NCCc1ccc2occc2c1

>  <inchikey>  (493) 
UAODQRNGFNZVAJ-UHFFFAOYSA-N

>  <SLURM_JOB_NAME>  (493) 
BulkDock.place:Flavi_NS5_RdRp:RdRp_knitwork_green_site_rna_tunnel_pure_split4000_batch008

>  <scratch_subdir>  (493) 
/opt/xchem-fragalysis-2/maxwin/BulkDock/SCRATCH/217079/C29858-P218

>  <alias>  (493) 
None

>  <SLURM_JOB_ID>  (493) 
217079

>  <exports>  (493) 
['/opt/xchem-fragalysis-2/maxwin/BulkDock/OUTPUTS/RdRp_knitwork_green_site_rna_tunnel_pure_split4000_batch008_217079.sdf']

$$$$
157795
     RDKit          3D

 22 24  0  0  0  0  0  0  0  0999 V2000
  -23.8693  -28.2017  -23.9205 C   0  0  0  0  0  0  0  0  0  0  0  0
  -23.7915  -29.4457  -23.2224 O   0  0  0  0  0  0  0  0  0  0  0  0
  -24.6152  -29.5450  -22.1398 C   0  0  0  0  0  0  0  0  0  0  0  0
  -25.2754  -28.6188  -21.6951 O   0  0  0  0  0  0  0  0  0  0  0  0
  -24.6058  -30.9561  -21.6275 C   0  0  0  0  0  0  0  0  0  0  0  0
  -25.4934  -31.2641  -20.4495 C   0  0  0  0  0  0  0  0  0  0  0  0
  -26.6747  -30.5892  -20.1507 C   0  0  0  0  0  0  0  0  0  0  0  0
  -27.4563  -31.0279  -19.0937 C   0  0  0  0  0  0  0  0  0  0  0  0
  -27.0451  -32.1366  -18.3718 C   0  0  0  0  0  0  0  0  0  0  0  0
  -25.8617  -32.7776  -18.7178 C   0  0  0  0  0  0  0  0  0  0  0  0
  -25.3891  -33.8745  -17.9855 N   0  0  0  0  0  0  0  0  0  0  0  0
  -24.8942  -33.4668  -16.6711 C   0  0  0  0  0  0  0  0  0  0  0  0
  -23.4615  -32.9911  -16.6271 C   0  0  0  0  0  0  0  0  0  0  0  0
  -22.5416  -33.2120  -17.6627 C   0  0  0  0  0  0  0  0  0  0  0  0
  -21.2219  -32.7503  -17.5810 C   0  0  0  0  0  0  0  0  0  0  0  0
  -20.8707  -32.0690  -16.4189 C   0  0  0  0  0  0  0  0  0  0  0  0
  -19.6517  -31.5222  -16.1572 O   0  0  0  0  0  0  0  0  0  0  0  0
  -19.7314  -30.9423  -14.9306 C   0  0  0  0  0  0  0  0  0  0  0  0
  -20.9827  -31.1256  -14.3878 C   0  0  0  0  0  0  0  0  0  0  0  0
  -21.7322  -31.8477  -15.3528 C   0  0  0  0  0  0  0  0  0  0  0  0
  -23.0449  -32.3321  -15.4487 C   0  0  0  0  0  0  0  0  0  0  0  0
  -25.1098  -32.3577  -19.7462 N   0  0  0  0  0  0  0  0  0  0  0  0
  1  2  1  0
  2  3  1  0
  3  4  2  0
  3  5  1  0
  5  6  1  0
  6  7  2  0
  7  8  1  0
  8  9  2  0
  9 10  1  0
 10 11  1  0
 11 12  1  0
 12 13  1  0
 13 14  2  0
 14 15  1  0
 15 16  2  0
 16 17  1  0
 17 18  1  0
 18 19  2  0
 19 20  1  0
 20 21  2  0
 10 22  2  0
 22  6  1  0
 21 13  1  0
 20 16  1  0
M  END
>  <HIPPO Pose ID>  (494) 
157795

>  <fragmenstein_outcome>  (494) 
acceptable

>  <energy_score>  (494) 
-39.992402

>  <distance_score>  (494) 
0.94592

>  <fragmenstein_mode>  (494) 
expansion

>  <HIPPO Compound ID>  (494) 
31629

>  <name>  (494) 
GBDRSPOKUATMGT-UHFFFAOYSA-N

>  <ref_pdb>  (494) 
3vws-a

>  <ref_mols>  (494) 
z0411a,3vws-a

>  <csv_name>  (494) 
RdRp_knitwork_green_site_rna_tunnel_pure_split4000_batch008.csv

>  <fragmenstein_runtime>  (494) 
4.051925

>  <tags>  (494) 
['Fragmenstein placed']

>  <original ID>  (494) 
GBDRSPOKUATMGT-UHFFFAOYSA-N

>  <fragmenstein_error>  (494) 
None

>  <original SMILES>  (494) 
COC(=O)Cc1cccc(NCc2ccc3occc3c2)n1

>  <inchikey>  (494) 
GBDRSPOKUATMGT-UHFFFAOYSA-N

>  <SLURM_JOB_NAME>  (494) 
BulkDock.place:Flavi_NS5_RdRp:RdRp_knitwork_green_site_rna_tunnel_pure_split4000_batch008

>  <scratch_subdir>  (494) 
/opt/xchem-fragalysis-2/maxwin/BulkDock/SCRATCH/217079/C31629-P218

>  <alias>  (494) 
None

>  <SLURM_JOB_ID>  (494) 
217079

>  <exports>  (494) 
['/opt/xchem-fragalysis-2/maxwin/BulkDock/OUTPUTS/RdRp_knitwork_green_site_rna_tunnel_pure_split4000_batch008_217079.sdf']

$$$$
158187
     RDKit          3D

 22 25  0  0  0  0  0  0  0  0999 V2000
  -27.0358  -34.7946  -17.8902 O   0  0  0  0  0  0  0  0  0  0  0  0
  -25.7487  -34.1928  -18.1791 S   0  0  0  0  0  0  0  0  0  0  0  0
  -24.7968  -34.9022  -18.9966 O   0  0  0  0  0  0  0  0  0  0  0  0
  -25.0652  -33.8143  -16.7121 N   0  0  0  0  0  0  0  0  0  0  0  0
  -23.7439  -33.2671  -16.3536 C   0  0  2  0  0  0  0  0  0  0  0  0
  -23.4882  -31.7779  -16.6644 C   0  0  0  0  0  0  0  0  0  0  0  0
  -22.0142  -32.1343  -16.9527 C   0  0  1  0  0  0  0  0  0  0  0  0
  -21.1211  -31.9175  -15.7967 N   0  0  0  0  0  0  0  0  0  0  0  0
  -21.4701  -31.8007  -14.4820 C   0  0  0  0  0  0  0  0  0  0  0  0
  -20.3102  -31.4283  -13.8474 C   0  0  0  0  0  0  0  0  0  0  0  0
  -19.2713  -31.3471  -14.7359 N   0  0  0  0  0  0  0  0  0  0  0  0
  -19.7908  -31.6429  -15.9076 C   0  0  0  0  0  0  0  0  0  0  0  0
  -22.4682  -33.5984  -17.1533 C   0  0  0  0  0  0  0  0  0  0  0  0
  -26.0895  -32.6213  -18.8993 C   0  0  0  0  0  0  0  0  0  0  0  0
  -27.2706  -31.9456  -18.5411 C   0  0  0  0  0  0  0  0  0  0  0  0
  -27.6106  -30.7169  -19.1108 C   0  0  0  0  0  0  0  0  0  0  0  0
  -26.7822  -30.1159  -20.0610 C   0  0  0  0  0  0  0  0  0  0  0  0
  -25.6155  -30.7888  -20.4598 C   0  0  0  0  0  0  0  0  0  0  0  0
  -24.5934  -30.5357  -21.4072 C   0  0  0  0  0  0  0  0  0  0  0  0
  -23.7152  -31.5900  -21.3228 C   0  0  0  0  0  0  0  0  0  0  0  0
  -24.1344  -32.4836  -20.3928 O   0  0  0  0  0  0  0  0  0  0  0  0
  -25.3029  -32.0139  -19.8733 C   0  0  0  0  0  0  0  0  0  0  0  0
  1  2  2  0
  2  3  2  0
  2  4  1  0
  5  4  1  6
  5  6  1  0
  6  7  1  0
  7  8  1  1
  8  9  1  0
  9 10  2  0
 10 11  1  0
 11 12  2  0
  7 13  1  0
  2 14  1  0
 14 15  2  0
 15 16  1  0
 16 17  2  0
 17 18  1  0
 18 19  1  0
 19 20  2  0
 20 21  1  0
 21 22  1  0
 13  5  1  0
 22 14  1  0
 12  8  1  0
 22 18  2  0
M  END
>  <HIPPO Pose ID>  (495) 
158187

>  <fragmenstein_outcome>  (495) 
acceptable

>  <energy_score>  (495) 
-53.680356

>  <distance_score>  (495) 
0.982002

>  <fragmenstein_mode>  (495) 
expansion

>  <HIPPO Compound ID>  (495) 
45606

>  <name>  (495) 
QOJWWSLHZFGIJC-JOCQHMNTSA-N

>  <ref_pdb>  (495) 
3vws-a

>  <ref_mols>  (495) 
d0378a,3vws-a

>  <csv_name>  (495) 
RdRp_knitwork_green_site_rna_tunnel_pure_split4000_batch008.csv

>  <fragmenstein_runtime>  (495) 
11.210738

>  <tags>  (495) 
['Fragmenstein placed']

>  <original ID>  (495) 
QOJWWSLHZFGIJC-JOCQHMNTSA-N

>  <fragmenstein_error>  (495) 
None

>  <original SMILES>  (495) 
O=S(=O)(N[C@H]1C[C@H](n2ccnc2)C1)c1cccc2ccoc12

>  <inchikey>  (495) 
QOJWWSLHZFGIJC-JOCQHMNTSA-N

>  <SLURM_JOB_NAME>  (495) 
BulkDock.place:Flavi_NS5_RdRp:RdRp_knitwork_green_site_rna_tunnel_pure_split4000_batch008

>  <scratch_subdir>  (495) 
/opt/xchem-fragalysis-2/maxwin/BulkDock/SCRATCH/217079/C45606-P218

>  <alias>  (495) 
None

>  <SLURM_JOB_ID>  (495) 
217079

>  <exports>  (495) 
['/opt/xchem-fragalysis-2/maxwin/BulkDock/OUTPUTS/RdRp_knitwork_green_site_rna_tunnel_pure_split4000_batch008_217079.sdf']

$$$$
158198
     RDKit          3D

 22 24  0  0  0  0  0  0  0  0999 V2000
  -23.2136  -35.6745  -18.7058 C   0  0  0  0  0  0  0  0  0  0  0  0
  -24.0602  -34.7080  -17.9808 N   0  0  0  0  0  0  0  0  0  0  0  0
  -23.4171  -33.7622  -17.0570 C   0  0  0  0  0  0  0  0  0  0  0  0
  -22.1615  -33.1774  -17.7189 C   0  0  0  0  0  0  0  0  0  0  0  0
  -21.7997  -31.7796  -17.2537 C   0  0  0  0  0  0  0  0  0  0  0  0
  -21.3712  -31.6929  -15.8794 N   0  0  0  0  0  0  0  0  0  0  0  0
  -22.1864  -31.5815  -14.7896 C   0  0  0  0  0  0  0  0  0  0  0  0
  -21.3330  -31.3742  -13.7325 C   0  0  0  0  0  0  0  0  0  0  0  0
  -20.0283  -31.3778  -14.1519 N   0  0  0  0  0  0  0  0  0  0  0  0
  -20.0818  -31.5620  -15.4519 C   0  0  0  0  0  0  0  0  0  0  0  0
  -25.6543  -34.5686  -18.4624 S   0  0  0  0  0  0  0  0  0  0  0  0
  -26.5415  -34.7148  -17.3343 O   0  0  0  0  0  0  0  0  0  0  0  0
  -25.8402  -35.3967  -19.6339 O   0  0  0  0  0  0  0  0  0  0  0  0
  -25.7939  -32.8969  -19.0412 C   0  0  0  0  0  0  0  0  0  0  0  0
  -26.6805  -32.0038  -18.4253 C   0  0  0  0  0  0  0  0  0  0  0  0
  -26.8631  -30.7160  -18.9416 C   0  0  0  0  0  0  0  0  0  0  0  0
  -26.1158  -30.3864  -20.0665 C   0  0  0  0  0  0  0  0  0  0  0  0
  -26.1454  -29.1906  -20.7180 O   0  0  0  0  0  0  0  0  0  0  0  0
  -25.2947  -29.3073  -21.7689 C   0  0  0  0  0  0  0  0  0  0  0  0
  -24.7208  -30.5535  -21.8066 C   0  0  0  0  0  0  0  0  0  0  0  0
  -25.2334  -31.2569  -20.6963 C   0  0  0  0  0  0  0  0  0  0  0  0
  -25.0628  -32.5466  -20.1828 C   0  0  0  0  0  0  0  0  0  0  0  0
  1  2  1  0
  2  3  1  0
  3  4  1  0
  4  5  1  0
  5  6  1  0
  6  7  1  0
  7  8  2  0
  8  9  1  0
  9 10  2  0
  2 11  1  0
 11 12  2  0
 11 13  2  0
 11 14  1  0
 14 15  2  0
 15 16  1  0
 16 17  2  0
 17 18  1  0
 18 19  1  0
 19 20  2  0
 20 21  1  0
 21 22  2  0
 10  6  1  0
 22 14  1  0
 21 17  1  0
M  END
>  <HIPPO Pose ID>  (496) 
158198

>  <fragmenstein_outcome>  (496) 
acceptable

>  <energy_score>  (496) 
-34.497789

>  <distance_score>  (496) 
0.907016

>  <fragmenstein_mode>  (496) 
expansion

>  <HIPPO Compound ID>  (496) 
45671

>  <name>  (496) 
YTDHYIZMLPNLBW-UHFFFAOYSA-N

>  <ref_pdb>  (496) 
3vws-a

>  <ref_mols>  (496) 
d0378a,3vws-a

>  <csv_name>  (496) 
RdRp_knitwork_green_site_rna_tunnel_pure_split4000_batch008.csv

>  <fragmenstein_runtime>  (496) 
3.858231

>  <tags>  (496) 
['Fragmenstein placed']

>  <original ID>  (496) 
YTDHYIZMLPNLBW-UHFFFAOYSA-N

>  <fragmenstein_error>  (496) 
None

>  <original SMILES>  (496) 
CN(CCCn1ccnc1)S(=O)(=O)c1ccc2occc2c1

>  <inchikey>  (496) 
YTDHYIZMLPNLBW-UHFFFAOYSA-N

>  <SLURM_JOB_NAME>  (496) 
BulkDock.place:Flavi_NS5_RdRp:RdRp_knitwork_green_site_rna_tunnel_pure_split4000_batch008

>  <scratch_subdir>  (496) 
/opt/xchem-fragalysis-2/maxwin/BulkDock/SCRATCH/217079/C45671-P218

>  <alias>  (496) 
None

>  <SLURM_JOB_ID>  (496) 
217079

>  <exports>  (496) 
['/opt/xchem-fragalysis-2/maxwin/BulkDock/OUTPUTS/RdRp_knitwork_green_site_rna_tunnel_pure_split4000_batch008_217079.sdf']

$$$$
158394
     RDKit          3D

 22 24  0  0  0  0  0  0  0  0999 V2000
  -23.6482  -31.6418  -15.2640 C   0  0  0  0  0  0  0  0  0  0  0  0
  -22.7770  -32.8681  -15.5293 C   0  0  0  0  0  0  0  0  0  0  0  0
  -22.8498  -33.8536  -14.3446 C   0  0  0  0  0  0  0  0  0  0  0  0
  -23.3027  -33.5614  -16.8255 C   0  0  0  0  0  0  0  0  0  0  0  0
  -24.7593  -33.8145  -16.7796 N   0  0  0  0  0  0  0  0  0  0  0  0
  -25.5866  -34.1972  -18.1769 S   0  0  0  0  0  0  0  0  0  0  0  0
  -26.8470  -34.7960  -17.7844 O   0  0  0  0  0  0  0  0  0  0  0  0
  -24.6997  -34.9010  -19.0710 O   0  0  0  0  0  0  0  0  0  0  0  0
  -25.9716  -32.6150  -18.8545 C   0  0  0  0  0  0  0  0  0  0  0  0
  -27.1922  -32.0006  -18.5187 C   0  0  0  0  0  0  0  0  0  0  0  0
  -27.5760  -30.7812  -19.0809 C   0  0  0  0  0  0  0  0  0  0  0  0
  -26.7547  -30.1297  -20.0036 C   0  0  0  0  0  0  0  0  0  0  0  0
  -25.5448  -30.7388  -20.3754 C   0  0  0  0  0  0  0  0  0  0  0  0
  -24.5132  -30.4255  -21.2933 C   0  0  0  0  0  0  0  0  0  0  0  0
  -23.5830  -31.4329  -21.1919 C   0  0  0  0  0  0  0  0  0  0  0  0
  -23.9795  -32.3569  -20.2809 O   0  0  0  0  0  0  0  0  0  0  0  0
  -25.1850  -31.9517  -19.7904 C   0  0  0  0  0  0  0  0  0  0  0  0
  -21.3890  -32.3763  -15.6344 N   0  0  0  0  0  0  0  0  0  0  0  0
  -20.5631  -32.3757  -16.7222 C   0  0  0  0  0  0  0  0  0  0  0  0
  -19.4302  -31.7064  -16.3171 C   0  0  0  0  0  0  0  0  0  0  0  0
  -19.5321  -31.3170  -15.0111 N   0  0  0  0  0  0  0  0  0  0  0  0
  -20.7143  -31.7281  -14.6252 C   0  0  0  0  0  0  0  0  0  0  0  0
  1  2  1  0
  2  3  1  0
  2  4  1  0
  4  5  1  0
  5  6  1  0
  6  7  2  0
  6  8  2  0
  6  9  1  0
  9 10  2  0
 10 11  1  0
 11 12  2  0
 12 13  1  0
 13 14  1  0
 14 15  2  0
 15 16  1  0
 16 17  1  0
  2 18  1  0
 18 19  1  0
 19 20  2  0
 20 21  1  0
 21 22  2  0
 17  9  1  0
 22 18  1  0
 17 13  2  0
M  END
>  <HIPPO Pose ID>  (497) 
158394

>  <fragmenstein_outcome>  (497) 
acceptable

>  <energy_score>  (497) 
-43.215016

>  <distance_score>  (497) 
0.872364

>  <fragmenstein_mode>  (497) 
expansion

>  <HIPPO Compound ID>  (497) 
46701

>  <name>  (497) 
GAKCCVQWKJSULN-UHFFFAOYSA-N

>  <ref_pdb>  (497) 
3vws-a

>  <ref_mols>  (497) 
d0378a,3vws-a

>  <csv_name>  (497) 
RdRp_knitwork_green_site_rna_tunnel_pure_split4000_batch008.csv

>  <fragmenstein_runtime>  (497) 
3.564076

>  <tags>  (497) 
['Fragmenstein placed']

>  <original ID>  (497) 
GAKCCVQWKJSULN-UHFFFAOYSA-N

>  <fragmenstein_error>  (497) 
None

>  <original SMILES>  (497) 
CC(C)(CNS(=O)(=O)c1cccc2ccoc12)n1ccnc1

>  <inchikey>  (497) 
GAKCCVQWKJSULN-UHFFFAOYSA-N

>  <SLURM_JOB_NAME>  (497) 
BulkDock.place:Flavi_NS5_RdRp:RdRp_knitwork_green_site_rna_tunnel_pure_split4000_batch008

>  <scratch_subdir>  (497) 
/opt/xchem-fragalysis-2/maxwin/BulkDock/SCRATCH/217079/C46701-P218

>  <alias>  (497) 
None

>  <SLURM_JOB_ID>  (497) 
217079

>  <exports>  (497) 
['/opt/xchem-fragalysis-2/maxwin/BulkDock/OUTPUTS/RdRp_knitwork_green_site_rna_tunnel_pure_split4000_batch008_217079.sdf']

$$$$
158454
     RDKit          3D

 15 17  0  0  0  0  0  0  0  0999 V2000
  -24.9462  -27.6349  -16.9833 C   0  0  0  0  0  0  0  0  0  0  0  0
  -25.4971  -27.3226  -18.2219 C   0  0  0  0  0  0  0  0  0  0  0  0
  -26.5653  -28.0722  -18.7106 C   0  0  0  0  0  0  0  0  0  0  0  0
  -27.0877  -29.1497  -17.9804 C   0  0  0  0  0  0  0  0  0  0  0  0
  -26.6159  -29.3597  -16.6751 C   0  0  0  0  0  0  0  0  0  0  0  0
  -25.5111  -28.6434  -16.2050 C   0  0  0  0  0  0  0  0  0  0  0  0
  -27.3107  -30.3656  -15.8020 C   0  0  0  0  0  0  0  0  0  0  0  0
  -28.7873  -30.3423  -16.1739 C   0  0  0  0  0  0  0  0  0  0  0  0
  -28.9505  -30.7303  -17.6417 C   0  0  0  0  0  0  0  0  0  0  0  0
  -28.0097  -30.0467  -18.5708 N   0  0  0  0  0  0  0  0  0  0  0  0
  -27.6196  -30.8275  -19.6376 C   0  0  0  0  0  0  0  0  0  0  0  0
  -28.1206  -31.9898  -20.0077 N   0  0  0  0  0  0  0  0  0  0  0  0
  -27.2974  -32.4700  -20.9902 C   0  0  0  0  0  0  0  0  0  0  0  0
  -26.3335  -31.5533  -21.3154 C   0  0  0  0  0  0  0  0  0  0  0  0
  -26.5421  -30.5209  -20.4491 N   0  0  0  0  0  0  0  0  0  0  0  0
  1  2  2  0
  2  3  1  0
  3  4  2  0
  4  5  1  0
  5  6  2  0
  5  7  1  0
  7  8  1  0
  8  9  1  0
  9 10  1  0
 10 11  1  0
 11 12  2  0
 12 13  1  0
 13 14  2  0
 14 15  1  0
  6  1  1  0
 15 11  1  0
 10  4  1  0
M  END
>  <HIPPO Pose ID>  (498) 
158454

>  <fragmenstein_outcome>  (498) 
acceptable

>  <energy_score>  (498) 
-31.132302

>  <distance_score>  (498) 
0.956407

>  <fragmenstein_mode>  (498) 
expansion

>  <HIPPO Compound ID>  (498) 
36444

>  <name>  (498) 
OZQNHEUPTKNCJX-UHFFFAOYSA-N

>  <ref_pdb>  (498) 
d0378a

>  <ref_mols>  (498) 
d0378a,z0165a

>  <csv_name>  (498) 
RdRp_knitwork_green_site_rna_tunnel_pure_split4000_batch010.csv

>  <fragmenstein_runtime>  (498) 
1.794953

>  <tags>  (498) 
['Fragmenstein placed']

>  <original ID>  (498) 
OZQNHEUPTKNCJX-UHFFFAOYSA-N

>  <fragmenstein_error>  (498) 
None

>  <original SMILES>  (498) 
c1ccc2c(c1)CCCN2c1ncc[nH]1

>  <inchikey>  (498) 
OZQNHEUPTKNCJX-UHFFFAOYSA-N

>  <SLURM_JOB_NAME>  (498) 
BulkDock.place:Flavi_NS5_RdRp:RdRp_knitwork_green_site_rna_tunnel_pure_split4000_batch010

>  <scratch_subdir>  (498) 
/opt/xchem-fragalysis-2/maxwin/BulkDock/SCRATCH/217081/C36444-P1

>  <alias>  (498) 
None

>  <SLURM_JOB_ID>  (498) 
217081

>  <exports>  (498) 
['/opt/xchem-fragalysis-2/maxwin/BulkDock/OUTPUTS/RdRp_knitwork_green_site_rna_tunnel_pure_split4000_batch010_217081.sdf']

$$$$
158567
     RDKit          3D

 19 21  0  0  0  0  0  0  0  0999 V2000
  -27.0437  -34.6800  -17.7947 O   0  0  0  0  0  0  0  0  0  0  0  0
  -25.7978  -34.1841  -18.3388 S   0  0  0  0  0  0  0  0  0  0  0  0
  -25.0729  -34.9847  -19.2948 O   0  0  0  0  0  0  0  0  0  0  0  0
  -24.8084  -33.8190  -17.0435 N   0  0  0  0  0  0  0  0  0  0  0  0
  -23.3718  -33.9116  -17.3107 C   0  0  0  0  0  0  0  0  0  0  0  0
  -22.6029  -32.9920  -16.4378 C   0  0  0  0  0  0  0  0  0  0  0  0
  -21.3896  -32.5301  -16.6745 N   0  0  0  0  0  0  0  0  0  0  0  0
  -21.0866  -31.7273  -15.6087 C   0  0  0  0  0  0  0  0  0  0  0  0
  -22.1217  -31.7050  -14.7052 C   0  0  0  0  0  0  0  0  0  0  0  0
  -23.0820  -32.5148  -15.2414 N   0  0  0  0  0  0  0  0  0  0  0  0
  -26.1242  -32.5906  -19.0083 C   0  0  0  0  0  0  0  0  0  0  0  0
  -27.2732  -31.8885  -18.6031 C   0  0  0  0  0  0  0  0  0  0  0  0
  -27.5804  -30.6330  -19.1315 C   0  0  0  0  0  0  0  0  0  0  0  0
  -26.7482  -30.0309  -20.0788 C   0  0  0  0  0  0  0  0  0  0  0  0
  -25.6124  -30.7302  -20.5197 C   0  0  0  0  0  0  0  0  0  0  0  0
  -24.6036  -30.4906  -21.4847 C   0  0  0  0  0  0  0  0  0  0  0  0
  -23.7716  -31.5848  -21.4586 C   0  0  0  0  0  0  0  0  0  0  0  0
  -24.2002  -32.4854  -20.5396 O   0  0  0  0  0  0  0  0  0  0  0  0
  -25.3326  -31.9810  -19.9749 C   0  0  0  0  0  0  0  0  0  0  0  0
  1  2  2  0
  2  3  2  0
  2  4  1  0
  4  5  1  0
  5  6  1  0
  6  7  2  0
  7  8  1  0
  8  9  2  0
  9 10  1  0
  2 11  1  0
 11 12  2  0
 12 13  1  0
 13 14  2  0
 14 15  1  0
 15 16  1  0
 16 17  2  0
 17 18  1  0
 18 19  1  0
 10  6  1  0
 19 11  1  0
 19 15  2  0
M  END
>  <HIPPO Pose ID>  (499) 
158567

>  <fragmenstein_outcome>  (499) 
acceptable

>  <energy_score>  (499) 
-44.940683

>  <distance_score>  (499) 
0.877526

>  <fragmenstein_mode>  (499) 
expansion

>  <HIPPO Compound ID>  (499) 
47677

>  <name>  (499) 
DPMCMBOYMBMPRH-UHFFFAOYSA-N

>  <ref_pdb>  (499) 
3vws-a

>  <ref_mols>  (499) 
d0378a,3vws-a

>  <csv_name>  (499) 
RdRp_knitwork_green_site_rna_tunnel_pure_split4000_batch008.csv

>  <fragmenstein_runtime>  (499) 
8.66353

>  <tags>  (499) 
['Fragmenstein placed']

>  <original ID>  (499) 
DPMCMBOYMBMPRH-UHFFFAOYSA-N

>  <fragmenstein_error>  (499) 
None

>  <original SMILES>  (499) 
O=S(=O)(NCc1ncc[nH]1)c1cccc2ccoc12

>  <inchikey>  (499) 
DPMCMBOYMBMPRH-UHFFFAOYSA-N

>  <SLURM_JOB_NAME>  (499) 
BulkDock.place:Flavi_NS5_RdRp:RdRp_knitwork_green_site_rna_tunnel_pure_split4000_batch008

>  <scratch_subdir>  (499) 
/opt/xchem-fragalysis-2/maxwin/BulkDock/SCRATCH/217079/C47677-P218

>  <alias>  (499) 
None

>  <SLURM_JOB_ID>  (499) 
217079

>  <exports>  (499) 
['/opt/xchem-fragalysis-2/maxwin/BulkDock/OUTPUTS/RdRp_knitwork_green_site_rna_tunnel_pure_split4000_batch008_217079.sdf']

$$$$
158804
     RDKit          3D

 16 18  0  0  0  0  0  0  0  0999 V2000
  -27.4154  -33.8601  -21.5413 C   0  0  0  0  0  0  0  0  0  0  0  0
  -27.2339  -32.5027  -20.9805 C   0  0  0  0  0  0  0  0  0  0  0  0
  -26.3166  -31.5441  -21.3340 C   0  0  0  0  0  0  0  0  0  0  0  0
  -26.5544  -30.5076  -20.4804 N   0  0  0  0  0  0  0  0  0  0  0  0
  -27.6014  -30.8458  -19.6440 C   0  0  0  0  0  0  0  0  0  0  0  0
  -28.0071  -30.0622  -18.5841 N   0  0  0  0  0  0  0  0  0  0  0  0
  -28.9446  -30.7513  -17.6553 C   0  0  0  0  0  0  0  0  0  0  0  0
  -28.7832  -30.3659  -16.1866 C   0  0  0  0  0  0  0  0  0  0  0  0
  -27.3065  -30.3837  -15.8152 C   0  0  0  0  0  0  0  0  0  0  0  0
  -26.6181  -29.3707  -16.6851 C   0  0  0  0  0  0  0  0  0  0  0  0
  -25.5190  -28.6479  -16.2115 C   0  0  0  0  0  0  0  0  0  0  0  0
  -24.9608  -27.6329  -16.9862 C   0  0  0  0  0  0  0  0  0  0  0  0
  -25.5145  -27.3199  -18.2235 C   0  0  0  0  0  0  0  0  0  0  0  0
  -26.5777  -28.0750  -18.7149 C   0  0  0  0  0  0  0  0  0  0  0  0
  -27.0915  -29.1599  -17.9899 C   0  0  0  0  0  0  0  0  0  0  0  0
  -28.0608  -32.0326  -19.9897 N   0  0  0  0  0  0  0  0  0  0  0  0
  1  2  1  0
  2  3  2  0
  3  4  1  0
  4  5  1  0
  5  6  1  0
  6  7  1  0
  7  8  1  0
  8  9  1  0
  9 10  1  0
 10 11  2  0
 11 12  1  0
 12 13  2  0
 13 14  1  0
 14 15  2  0
  5 16  2  0
 16  2  1  0
 15  6  1  0
 15 10  1  0
M  END
>  <HIPPO Pose ID>  (500) 
158804

>  <fragmenstein_outcome>  (500) 
acceptable

>  <energy_score>  (500) 
-37.896304

>  <distance_score>  (500) 
0.956343

>  <fragmenstein_mode>  (500) 
expansion

>  <HIPPO Compound ID>  (500) 
57699

>  <name>  (500) 
MGHTVWFSTBTOFE-UHFFFAOYSA-N

>  <ref_pdb>  (500) 
d0378a

>  <ref_mols>  (500) 
d0378a,z0165a

>  <csv_name>  (500) 
RdRp_knitwork_green_site_rna_tunnel_pure_split4000_batch010.csv

>  <fragmenstein_runtime>  (500) 
1.974468

>  <tags>  (500) 
['Fragmenstein placed']

>  <original ID>  (500) 
MGHTVWFSTBTOFE-UHFFFAOYSA-N

>  <fragmenstein_error>  (500) 
None

>  <original SMILES>  (500) 
Cc1c[nH]c(N2CCCc3ccccc32)n1

>  <inchikey>  (500) 
MGHTVWFSTBTOFE-UHFFFAOYSA-N

>  <SLURM_JOB_NAME>  (500) 
BulkDock.place:Flavi_NS5_RdRp:RdRp_knitwork_green_site_rna_tunnel_pure_split4000_batch010

>  <scratch_subdir>  (500) 
/opt/xchem-fragalysis-2/maxwin/BulkDock/SCRATCH/217081/C57699-P1

>  <alias>  (500) 
None

>  <SLURM_JOB_ID>  (500) 
217081

>  <exports>  (500) 
['/opt/xchem-fragalysis-2/maxwin/BulkDock/OUTPUTS/RdRp_knitwork_green_site_rna_tunnel_pure_split4000_batch010_217081.sdf']

$$$$
158809
     RDKit          3D

 19 21  0  0  0  0  0  0  0  0999 V2000
  -25.7875  -35.9222  -21.9131 C   0  0  0  0  0  0  0  0  0  0  0  0
  -25.9715  -34.5337  -21.6710 O   0  0  0  0  0  0  0  0  0  0  0  0
  -27.1436  -34.2997  -20.8832 C   0  0  0  0  0  0  0  0  0  0  0  0
  -27.3119  -32.8273  -20.7407 C   0  0  0  0  0  0  0  0  0  0  0  0
  -28.2474  -32.1974  -20.0573 N   0  0  0  0  0  0  0  0  0  0  0  0
  -27.9889  -30.8476  -20.2073 C   0  0  0  0  0  0  0  0  0  0  0  0
  -28.8313  -29.8137  -19.5040 C   0  0  0  0  0  0  0  0  0  0  0  0
  -28.5550  -29.5623  -18.0734 N   0  0  0  0  0  0  0  0  0  0  0  0
  -29.1213  -30.5951  -17.1922 C   0  0  0  0  0  0  0  0  0  0  0  0
  -28.8843  -30.2538  -15.7332 C   0  0  0  0  0  0  0  0  0  0  0  0
  -27.3859  -30.2357  -15.4854 C   0  0  0  0  0  0  0  0  0  0  0  0
  -26.6827  -29.3709  -16.5005 C   0  0  0  0  0  0  0  0  0  0  0  0
  -25.3909  -28.9064  -16.1980 C   0  0  0  0  0  0  0  0  0  0  0  0
  -24.7070  -28.0843  -17.0869 C   0  0  0  0  0  0  0  0  0  0  0  0
  -25.3097  -27.7163  -18.2807 C   0  0  0  0  0  0  0  0  0  0  0  0
  -26.5836  -28.1970  -18.5931 C   0  0  0  0  0  0  0  0  0  0  0  0
  -27.2844  -29.0677  -17.7393 C   0  0  0  0  0  0  0  0  0  0  0  0
  -26.9002  -30.6694  -21.0380 C   0  0  0  0  0  0  0  0  0  0  0  0
  -26.4767  -31.9282  -21.3570 N   0  0  0  0  0  0  0  0  0  0  0  0
  1  2  1  0
  2  3  1  0
  3  4  1  0
  4  5  2  0
  5  6  1  0
  6  7  1  0
  7  8  1  0
  8  9  1  0
  9 10  1  0
 10 11  1  0
 11 12  1  0
 12 13  2  0
 13 14  1  0
 14 15  2  0
 15 16  1  0
 16 17  2  0
  6 18  2  0
 18 19  1  0
 19  4  1  0
 17  8  1  0
 17 12  1  0
M  END
>  <HIPPO Pose ID>  (501) 
158809

>  <fragmenstein_outcome>  (501) 
acceptable

>  <energy_score>  (501) 
-40.673817

>  <distance_score>  (501) 
0.877408

>  <fragmenstein_mode>  (501) 
expansion

>  <HIPPO Compound ID>  (501) 
57712

>  <name>  (501) 
PZCKDHRQALCUKM-UHFFFAOYSA-N

>  <ref_pdb>  (501) 
d0378a

>  <ref_mols>  (501) 
d0378a,z0165a

>  <csv_name>  (501) 
RdRp_knitwork_green_site_rna_tunnel_pure_split4000_batch010.csv

>  <fragmenstein_runtime>  (501) 
2.854031

>  <tags>  (501) 
['Fragmenstein placed']

>  <original ID>  (501) 
PZCKDHRQALCUKM-UHFFFAOYSA-N

>  <fragmenstein_error>  (501) 
None

>  <original SMILES>  (501) 
COCc1nc(CN2CCCc3ccccc32)c[nH]1

>  <inchikey>  (501) 
PZCKDHRQALCUKM-UHFFFAOYSA-N

>  <SLURM_JOB_NAME>  (501) 
BulkDock.place:Flavi_NS5_RdRp:RdRp_knitwork_green_site_rna_tunnel_pure_split4000_batch010

>  <scratch_subdir>  (501) 
/opt/xchem-fragalysis-2/maxwin/BulkDock/SCRATCH/217081/C57712-P1

>  <alias>  (501) 
None

>  <SLURM_JOB_ID>  (501) 
217081

>  <exports>  (501) 
['/opt/xchem-fragalysis-2/maxwin/BulkDock/OUTPUTS/RdRp_knitwork_green_site_rna_tunnel_pure_split4000_batch010_217081.sdf']

$$$$
158812
     RDKit          3D

 22 25  0  0  0  0  0  0  0  0999 V2000
  -26.3152  -35.9836  -23.8488 C   0  0  0  0  0  0  0  0  0  0  0  0
  -26.9499  -36.5004  -22.7218 C   0  0  0  0  0  0  0  0  0  0  0  0
  -27.3038  -35.6537  -21.6673 C   0  0  0  0  0  0  0  0  0  0  0  0
  -27.0228  -34.2802  -21.7291 C   0  0  0  0  0  0  0  0  0  0  0  0
  -27.4050  -33.3706  -20.6497 C   0  0  0  0  0  0  0  0  0  0  0  0
  -27.7518  -32.1025  -20.7774 N   0  0  0  0  0  0  0  0  0  0  0  0
  -28.1198  -31.6580  -19.5253 C   0  0  0  0  0  0  0  0  0  0  0  0
  -28.7089  -30.2775  -19.3472 C   0  0  0  0  0  0  0  0  0  0  0  0
  -28.5116  -29.5803  -18.0583 N   0  0  0  0  0  0  0  0  0  0  0  0
  -29.4073  -30.0265  -16.9855 C   0  0  0  0  0  0  0  0  0  0  0  0
  -28.9335  -29.6396  -15.5949 C   0  0  0  0  0  0  0  0  0  0  0  0
  -27.4864  -30.0600  -15.4101 C   0  0  0  0  0  0  0  0  0  0  0  0
  -26.6505  -29.4187  -16.4827 C   0  0  0  0  0  0  0  0  0  0  0  0
  -25.3201  -29.0671  -16.2077 C   0  0  0  0  0  0  0  0  0  0  0  0
  -24.5341  -28.4636  -17.1852 C   0  0  0  0  0  0  0  0  0  0  0  0
  -25.0669  -28.2187  -18.4437 C   0  0  0  0  0  0  0  0  0  0  0  0
  -26.3814  -28.5945  -18.7258 C   0  0  0  0  0  0  0  0  0  0  0  0
  -27.1949  -29.2174  -17.7637 C   0  0  0  0  0  0  0  0  0  0  0  0
  -27.9047  -32.6631  -18.6049 C   0  0  0  0  0  0  0  0  0  0  0  0
  -27.4601  -33.7346  -19.3262 N   0  0  0  0  0  0  0  0  0  0  0  0
  -26.3889  -33.7742  -22.8711 C   0  0  0  0  0  0  0  0  0  0  0  0
  -26.0363  -34.6211  -23.9243 C   0  0  0  0  0  0  0  0  0  0  0  0
  1  2  2  0
  2  3  1  0
  3  4  2  0
  4  5  1  0
  5  6  2  0
  6  7  1  0
  7  8  1  0
  8  9  1  0
  9 10  1  0
 10 11  1  0
 11 12  1  0
 12 13  1  0
 13 14  2  0
 14 15  1  0
 15 16  2  0
 16 17  1  0
 17 18  2  0
  7 19  2  0
 19 20  1  0
  4 21  1  0
 21 22  2  0
 22  1  1  0
 20  5  1  0
 18  9  1  0
 18 13  1  0
M  END
>  <HIPPO Pose ID>  (502) 
158812

>  <fragmenstein_outcome>  (502) 
acceptable

>  <energy_score>  (502) 
-20.217692

>  <distance_score>  (502) 
0.773154

>  <fragmenstein_mode>  (502) 
expansion

>  <HIPPO Compound ID>  (502) 
57730

>  <name>  (502) 
WLCJXRZJEIVZRS-UHFFFAOYSA-N

>  <ref_pdb>  (502) 
d0378a

>  <ref_mols>  (502) 
d0378a,z0165a

>  <csv_name>  (502) 
RdRp_knitwork_green_site_rna_tunnel_pure_split4000_batch010.csv

>  <fragmenstein_runtime>  (502) 
2.760779

>  <tags>  (502) 
['Fragmenstein placed']

>  <original ID>  (502) 
WLCJXRZJEIVZRS-UHFFFAOYSA-N

>  <fragmenstein_error>  (502) 
None

>  <original SMILES>  (502) 
c1ccc(-c2nc(CN3CCCc4ccccc43)c[nH]2)cc1

>  <inchikey>  (502) 
WLCJXRZJEIVZRS-UHFFFAOYSA-N

>  <SLURM_JOB_NAME>  (502) 
BulkDock.place:Flavi_NS5_RdRp:RdRp_knitwork_green_site_rna_tunnel_pure_split4000_batch010

>  <scratch_subdir>  (502) 
/opt/xchem-fragalysis-2/maxwin/BulkDock/SCRATCH/217081/C57730-P1

>  <alias>  (502) 
None

>  <SLURM_JOB_ID>  (502) 
217081

>  <exports>  (502) 
['/opt/xchem-fragalysis-2/maxwin/BulkDock/OUTPUTS/RdRp_knitwork_green_site_rna_tunnel_pure_split4000_batch010_217081.sdf']

$$$$
158816
     RDKit          3D

 22 25  0  0  0  0  0  0  0  0999 V2000
  -26.5242  -34.2510  -26.1492 C   0  0  0  0  0  0  0  0  0  0  0  0
  -27.6733  -34.7296  -25.5335 C   0  0  0  0  0  0  0  0  0  0  0  0
  -28.2083  -34.0537  -24.4320 C   0  0  0  0  0  0  0  0  0  0  0  0
  -27.6162  -32.8776  -23.9343 C   0  0  0  0  0  0  0  0  0  0  0  0
  -28.1521  -32.1782  -22.7558 C   0  0  0  0  0  0  0  0  0  0  0  0
  -27.9495  -30.9327  -22.3376 N   0  0  0  0  0  0  0  0  0  0  0  0
  -28.7372  -30.7654  -21.1951 C   0  0  0  0  0  0  0  0  0  0  0  0
  -28.8853  -29.4868  -20.4053 C   0  0  0  0  0  0  0  0  0  0  0  0
  -28.6192  -29.5038  -18.9439 N   0  0  0  0  0  0  0  0  0  0  0  0
  -29.5379  -30.2916  -18.1174 C   0  0  0  0  0  0  0  0  0  0  0  0
  -29.4088  -29.9904  -16.6331 C   0  0  0  0  0  0  0  0  0  0  0  0
  -27.9811  -30.2562  -16.1985 C   0  0  0  0  0  0  0  0  0  0  0  0
  -27.0386  -29.4808  -17.0785 C   0  0  0  0  0  0  0  0  0  0  0  0
  -25.8082  -29.0989  -16.5300 C   0  0  0  0  0  0  0  0  0  0  0  0
  -24.9421  -28.3027  -17.2605 C   0  0  0  0  0  0  0  0  0  0  0  0
  -25.2698  -27.9191  -18.5514 C   0  0  0  0  0  0  0  0  0  0  0  0
  -26.4672  -28.3538  -19.1200 C   0  0  0  0  0  0  0  0  0  0  0  0
  -27.3855  -29.1433  -18.4095 C   0  0  0  0  0  0  0  0  0  0  0  0
  -29.4408  -31.9183  -20.9653 C   0  0  0  0  0  0  0  0  0  0  0  0
  -28.9808  -32.8171  -21.8726 N   0  0  0  0  0  0  0  0  0  0  0  0
  -26.4848  -32.3991  -24.5931 C   0  0  0  0  0  0  0  0  0  0  0  0
  -25.9271  -33.0889  -25.6743 C   0  0  0  0  0  0  0  0  0  0  0  0
  1  2  2  0
  2  3  1  0
  3  4  2  0
  4  5  1  0
  5  6  2  0
  6  7  1  0
  7  8  1  0
  8  9  1  0
  9 10  1  0
 10 11  1  0
 11 12  1  0
 12 13  1  0
 13 14  2  0
 14 15  1  0
 15 16  2  0
 16 17  1  0
 17 18  2  0
  7 19  2  0
 19 20  1  0
  4 21  1  0
 21 22  2  0
 22  1  1  0
 20  5  1  0
 18  9  1  0
 18 13  1  0
M  END
>  <HIPPO Pose ID>  (503) 
158816

>  <fragmenstein_outcome>  (503) 
acceptable

>  <energy_score>  (503) 
-17.016473

>  <distance_score>  (503) 
0.867349

>  <fragmenstein_mode>  (503) 
expansion

>  <HIPPO Compound ID>  (503) 
57730

>  <name>  (503) 
WLCJXRZJEIVZRS-UHFFFAOYSA-N

>  <ref_pdb>  (503) 
z0165a

>  <ref_mols>  (503) 
d0378a,z0165a

>  <csv_name>  (503) 
RdRp_knitwork_green_site_rna_tunnel_pure_split4000_batch010.csv

>  <fragmenstein_runtime>  (503) 
2.714718

>  <tags>  (503) 
['Fragmenstein placed']

>  <original ID>  (503) 
WLCJXRZJEIVZRS-UHFFFAOYSA-N

>  <fragmenstein_error>  (503) 
None

>  <original SMILES>  (503) 
c1ccc(-c2nc(CN3CCCc4ccccc43)c[nH]2)cc1

>  <inchikey>  (503) 
WLCJXRZJEIVZRS-UHFFFAOYSA-N

>  <SLURM_JOB_NAME>  (503) 
BulkDock.place:Flavi_NS5_RdRp:RdRp_knitwork_green_site_rna_tunnel_pure_split4000_batch010

>  <scratch_subdir>  (503) 
/opt/xchem-fragalysis-2/maxwin/BulkDock/SCRATCH/217081/C57730-P3

>  <alias>  (503) 
None

>  <SLURM_JOB_ID>  (503) 
217081

>  <exports>  (503) 
['/opt/xchem-fragalysis-2/maxwin/BulkDock/OUTPUTS/RdRp_knitwork_green_site_rna_tunnel_pure_split4000_batch010_217081.sdf']

$$$$
159736
     RDKit          3D

 21 22  0  0  0  0  0  0  0  0999 V2000
  -26.9298  -34.0068  -15.8201 C   0  0  0  0  0  0  0  0  0  0  0  0
  -26.0620  -33.0604  -16.5272 N   0  0  0  0  0  0  0  0  0  0  0  0
  -26.1194  -33.3144  -17.9926 C   0  0  0  0  0  0  0  0  0  0  0  0
  -24.9332  -32.7380  -18.7725 C   0  0  0  0  0  0  0  0  0  0  0  0
  -25.1198  -31.3860  -19.2194 N   0  0  0  0  0  0  0  0  0  0  0  0
  -26.0474  -30.8108  -20.3047 C   0  0  0  0  0  0  0  0  0  0  0  0
  -26.7508  -31.3504  -21.0607 O   0  0  0  0  0  0  0  0  0  0  0  0
  -25.8549  -29.3153  -20.3608 C   0  0  0  0  0  0  0  0  0  0  0  0
  -26.1037  -28.6454  -21.5480 C   0  0  0  0  0  0  0  0  0  0  0  0
  -25.6944  -27.3211  -21.6363 C   0  0  0  0  0  0  0  0  0  0  0  0
  -25.1290  -26.6979  -20.5285 C   0  0  0  0  0  0  0  0  0  0  0  0
  -24.9253  -27.4420  -19.3816 C   0  0  0  0  0  0  0  0  0  0  0  0
  -25.2543  -28.7445  -19.2723 N   0  0  0  0  0  0  0  0  0  0  0  0
  -26.3452  -31.6603  -16.1142 C   0  0  0  0  0  0  0  0  0  0  0  0
  -27.5734  -30.9847  -16.7100 C   0  0  0  0  0  0  0  0  0  0  0  0
  -27.4504  -29.7300  -17.2987 C   0  0  0  0  0  0  0  0  0  0  0  0
  -28.4274  -29.3178  -18.1998 C   0  0  0  0  0  0  0  0  0  0  0  0
  -29.5032  -30.1512  -18.4436 C   0  0  0  0  0  0  0  0  0  0  0  0
  -30.3641  -29.8822  -19.4294 F   0  0  0  0  0  0  0  0  0  0  0  0
  -29.6392  -31.2940  -17.6871 C   0  0  0  0  0  0  0  0  0  0  0  0
  -28.7179  -31.7047  -16.7925 N   0  0  0  0  0  0  0  0  0  0  0  0
  1  2  1  0
  2  3  1  0
  3  4  1  0
  4  5  1  0
  5  6  1  0
  6  7  2  0
  6  8  1  0
  8  9  2  0
  9 10  1  0
 10 11  2  0
 11 12  1  0
 12 13  2  0
  2 14  1  0
 14 15  1  0
 15 16  2  0
 16 17  1  0
 17 18  2  0
 18 19  1  0
 18 20  1  0
 20 21  2  0
 13  8  1  0
 21 15  1  0
M  END
>  <HIPPO Pose ID>  (504) 
159736

>  <fragmenstein_outcome>  (504) 
acceptable

>  <energy_score>  (504) 
-14.588688

>  <distance_score>  (504) 
0.948257

>  <fragmenstein_mode>  (504) 
expansion

>  <HIPPO Compound ID>  (504) 
11710

>  <name>  (504) 
GNYBSHSCHFYNMB-UHFFFAOYSA-N

>  <ref_pdb>  (504) 
z0221a

>  <ref_mols>  (504) 
d0472b,z0221a

>  <csv_name>  (504) 
RdRp_knitwork_green_site_rna_tunnel_pure_split4000_batch003.csv

>  <fragmenstein_runtime>  (504) 
10.585592

>  <tags>  (504) 
['Fragmenstein placed']

>  <original ID>  (504) 
GNYBSHSCHFYNMB-UHFFFAOYSA-N

>  <fragmenstein_error>  (504) 
None

>  <original SMILES>  (504) 
CN(CCNC(=O)c1ccccn1)Cc1ccc(F)cn1

>  <inchikey>  (504) 
GNYBSHSCHFYNMB-UHFFFAOYSA-N

>  <SLURM_JOB_NAME>  (504) 
BulkDock.place:Flavi_NS5_RdRp:RdRp_knitwork_green_site_rna_tunnel_pure_split4000_batch003

>  <scratch_subdir>  (504) 
/opt/xchem-fragalysis-2/maxwin/BulkDock/SCRATCH/217074/C11710-P105

>  <alias>  (504) 
None

>  <SLURM_JOB_ID>  (504) 
217074

>  <exports>  (504) 
['/opt/xchem-fragalysis-2/maxwin/BulkDock/OUTPUTS/RdRp_knitwork_green_site_rna_tunnel_pure_split4000_batch003_217074.sdf']

$$$$
159891
     RDKit          3D

 22 25  0  0  0  0  0  0  0  0999 V2000
  -25.2346  -26.5505  -17.9575 C   0  0  0  0  0  0  0  0  0  0  0  0
  -24.9449  -27.4008  -19.1266 C   0  0  0  0  0  0  0  0  0  0  0  0
  -24.6401  -26.8489  -20.3436 C   0  0  0  0  0  0  0  0  0  0  0  0
  -24.7220  -27.6826  -21.4349 C   0  0  0  0  0  0  0  0  0  0  0  0
  -24.2985  -27.2466  -22.6677 C   0  0  0  0  0  0  0  0  0  0  0  0
  -24.5548  -28.0384  -23.7933 C   0  0  0  0  0  0  0  0  0  0  0  0
  -25.3490  -29.1503  -23.7317 C   0  0  0  0  0  0  0  0  0  0  0  0
  -25.5299  -29.6932  -22.4919 C   0  0  0  0  0  0  0  0  0  0  0  0
  -25.1845  -28.9933  -21.3066 C   0  0  0  0  0  0  0  0  0  0  0  0
  -25.1796  -29.5116  -19.9977 C   0  0  0  0  0  0  0  0  0  0  0  0
  -25.2659  -30.8757  -19.7932 N   0  0  0  0  0  0  0  0  0  0  0  0
  -24.9571  -31.4139  -18.4736 C   0  0  0  0  0  0  0  0  0  0  0  0
  -25.3734  -32.8868  -18.6161 C   0  0  0  0  0  0  0  0  0  0  0  0
  -26.1677  -32.9413  -19.9164 C   0  0  0  0  0  0  0  0  0  0  0  0
  -26.5031  -31.4865  -20.2262 C   0  0  1  0  0  0  0  0  0  0  0  0
  -27.6641  -30.7261  -19.6340 C   0  0  0  0  0  0  0  0  0  0  0  0
  -28.3465  -31.2082  -18.5609 C   0  0  0  0  0  0  0  0  0  0  0  0
  -29.5537  -30.6316  -18.2119 C   0  0  0  0  0  0  0  0  0  0  0  0
  -29.9630  -29.4751  -18.8129 C   0  0  0  0  0  0  0  0  0  0  0  0
  -29.1732  -28.9861  -19.8129 C   0  0  0  0  0  0  0  0  0  0  0  0
  -28.0548  -29.5834  -20.2538 N   0  0  0  0  0  0  0  0  0  0  0  0
  -25.0582  -28.7201  -18.9192 N   0  0  0  0  0  0  0  0  0  0  0  0
  1  2  1  0
  2  3  2  0
  3  4  1  0
  4  5  2  0
  5  6  1  0
  6  7  2  0
  7  8  1  0
  8  9  2  0
  9 10  1  0
 10 11  1  0
 11 12  1  0
 12 13  1  0
 13 14  1  0
 14 15  1  0
 15 16  1  1
 16 17  2  0
 17 18  1  0
 18 19  2  0
 19 20  1  0
 20 21  2  0
 10 22  2  0
 22  2  1  0
  9  4  1  0
 15 11  1  0
 21 16  1  0
M  END
>  <HIPPO Pose ID>  (505) 
159891

>  <fragmenstein_outcome>  (505) 
acceptable

>  <energy_score>  (505) 
-25.74783

>  <distance_score>  (505) 
0.981633

>  <fragmenstein_mode>  (505) 
expansion

>  <HIPPO Compound ID>  (505) 
65984

>  <name>  (505) 
XGROKUGHOOJSNF-SFHVURJKSA-N

>  <ref_pdb>  (505) 
d0472b

>  <ref_mols>  (505) 
d0472b,z0111a

>  <csv_name>  (505) 
RdRp_knitwork_green_site_rna_tunnel_pure_split4000_batch006.csv

>  <fragmenstein_runtime>  (505) 
2.954514

>  <tags>  (505) 
['Fragmenstein placed']

>  <original ID>  (505) 
XGROKUGHOOJSNF-SFHVURJKSA-N

>  <fragmenstein_error>  (505) 
None

>  <original SMILES>  (505) 
Cc1cc2ccccc2c(N2CCC[C@H]2c2ccccn2)n1

>  <inchikey>  (505) 
XGROKUGHOOJSNF-SFHVURJKSA-N

>  <SLURM_JOB_NAME>  (505) 
BulkDock.place:Flavi_NS5_RdRp:RdRp_knitwork_green_site_rna_tunnel_pure_split4000_batch006

>  <scratch_subdir>  (505) 
/opt/xchem-fragalysis-2/maxwin/BulkDock/SCRATCH/217077/C65984-P41

>  <alias>  (505) 
None

>  <SLURM_JOB_ID>  (505) 
217077

>  <exports>  (505) 
['/opt/xchem-fragalysis-2/maxwin/BulkDock/OUTPUTS/RdRp_knitwork_green_site_rna_tunnel_pure_split4000_batch006_217077.sdf']

$$$$
