ver_1.2
     RDKit          3D

 18 20  0  0  0  0  0  0  0  0999 V2000
   -2.4654    1.2605    0.0391 O   0  0  0  0  0  0  0  0  0  0  0  0
   -2.4759    0.0226   -0.1222 C   0  0  0  0  0  0  0  0  0  0  0  0
   -1.2490   -0.6403   -0.2607 N   0  0  0  0  0  0  0  0  0  0  0  0
    0.0033    0.1724   -0.2076 C   0  0  0  0  0  0  0  0  0  0  0  0
    1.1660   -0.3207   -0.3213 N   0  0  0  0  0  0  0  0  0  0  0  0
    2.1657    0.5734   -0.2468 C   0  0  0  0  0  0  0  0  0  0  0  0
    3.5711    0.1132   -0.3665 C   0  0  0  0  0  0  0  0  0  0  0  0
    4.7295    0.8939   -0.3136 C   0  0  0  0  0  0  0  0  0  0  0  0
    5.8077    0.1062   -0.4622 N   0  0  0  0  0  0  0  0  0  0  0  0
    5.3329   -1.1304   -0.6036 C   0  0  0  0  0  0  0  0  0  0  0  0
    4.0265   -1.1063   -0.5451 O   0  0  0  0  0  0  0  0  0  0  0  0
    1.9443    2.0838   -0.0401 C   0  0  0  0  0  0  0  0  0  0  0  0
    0.0618    1.9389    0.0207 S   0  0  0  0  0  0  0  0  0  0  0  0
   -3.7438   -0.7828   -0.1737 C   0  0  0  0  0  0  0  0  0  0  0  0
   -3.6817   -1.6985    1.0259 C   0  0  0  0  0  0  0  0  0  0  0  0
   -4.6861   -1.0625    1.9878 C   0  0  0  0  0  0  0  0  0  0  0  0
   -5.6561   -0.4647    0.9693 C   0  0  0  0  0  0  0  0  0  0  0  0
   -4.8507    0.0414   -0.0192 O   0  0  0  0  0  0  0  0  0  0  0  0
  1  2  2  0
  2  3  1  0
  3  4  1  0
  4  5  2  0
  5  6  1  0
  6  7  1  0
  7  8  2  0
  8  9  1  0
  9 10  2  0
 10 11  1  0
  6 12  2  0
 12 13  1  0
  2 14  1  0
 14 15  1  0
 15 16  1  0
 16 17  1  0
 17 18  1  0
 13  4  1  0
 18 14  1  0
 11  7  1  0
M  END
>  <ref_url>  (1) 
https://github.com/mwinokan/BulkDock

>  <submitter_name>  (1) 
Max Winokan

>  <submitter_email>  (1) 
max.winokan@diamond.ac.uk

>  <submitter_institution>  (1) 
DLS

>  <generation_date>  (1) 
2024-12-05

>  <method>  (1) 
Knitwork_Primer_pure

>  <SLURM_JOB_ID>  (1) 
SLURM_JOB_ID

>  <SLURM_JOB_NAME>  (1) 
SLURM_JOB_NAME

>  <csv_name>  (1) 
csv_name

>  <scratch_subdir>  (1) 
scratch_subdir

>  <fragmenstein_runtime>  (1) 
fragmenstein_runtime

>  <fragmenstein_outcome>  (1) 
fragmenstein_outcome

>  <fragmenstein_mode>  (1) 
fragmenstein_mode

>  <fragmenstein_error>  (1) 
fragmenstein_error

>  <exports>  (1) 
exports

>  <HIPPO Pose ID>  (1) 
HIPPO Pose ID

>  <HIPPO Compound ID>  (1) 
HIPPO Compound ID

>  <smiles>  (1) 
smiles

>  <ref_pdb>  (1) 
protein reference

>  <ref_mols>  (1) 
fragment inspirations

>  <original ID>  (1) 
original ID

>  <compound inchikey>  (1) 
compound inchikey

$$$$
55560
     RDKit          3D

 18 20  0  0  0  0  0  0  0  0999 V2000
  -18.2789  -45.1113  -23.3341 O   0  0  0  0  0  0  0  0  0  0  0  0
  -17.6644  -44.5616  -22.5044 C   0  0  0  0  0  0  0  0  0  0  0  0
  -16.7761  -43.2890  -22.5858 N   0  0  0  0  0  0  0  0  0  0  0  0
  -16.5536  -42.4348  -23.6161 C   0  0  0  0  0  0  0  0  0  0  0  0
  -16.3821  -41.1395  -23.5199 N   0  0  0  0  0  0  0  0  0  0  0  0
  -16.3995  -40.6120  -24.8098 C   0  0  0  0  0  0  0  0  0  0  0  0
  -16.8281  -39.1479  -25.1297 C   0  0  0  0  0  0  0  0  0  0  0  0
  -17.0821  -38.6136  -26.3784 C   0  0  0  0  0  0  0  0  0  0  0  0
  -17.7465  -37.4168  -26.2618 N   0  0  0  0  0  0  0  0  0  0  0  0
  -17.7319  -37.2048  -24.9624 C   0  0  0  0  0  0  0  0  0  0  0  0
  -17.1982  -38.2046  -24.2111 O   0  0  0  0  0  0  0  0  0  0  0  0
  -16.1963  -41.5266  -25.8207 C   0  0  0  0  0  0  0  0  0  0  0  0
  -16.4816  -43.0822  -25.1879 S   0  0  0  0  0  0  0  0  0  0  0  0
  -17.5614  -45.1093  -21.0631 C   0  0  2  0  0  0  0  0  0  0  0  0
  -18.8026  -44.8378  -20.2411 C   0  0  0  0  0  0  0  0  0  0  0  0
  -18.3026  -45.1448  -18.8504 C   0  0  0  0  0  0  0  0  0  0  0  0
  -16.8683  -44.6529  -18.8971 C   0  0  0  0  0  0  0  0  0  0  0  0
  -16.4824  -44.5836  -20.2824 O   0  0  0  0  0  0  0  0  0  0  0  0
  1  2  2  0
  2  3  1  0
  3  4  1  0
  4  5  2  0
  5  6  1  0
  6  7  1  0
  7  8  2  0
  8  9  1  0
  9 10  2  0
 10 11  1  0
  6 12  2  0
 12 13  1  0
 14  2  1  6
 14 15  1  0
 15 16  1  0
 16 17  1  0
 17 18  1  0
 13  4  1  0
 18 14  1  0
 11  7  1  0
M  END
>  <fragmenstein_mode>  (1) 
expansion

>  <original SMILES>  (1) 
O=C(Nc1nc(-c2cnco2)cs1)[C@@H]1CCCO1

>  <fragmenstein_outcome>  (1) 
acceptable

>  <energy_score>  (1) 
-11.776446

>  <tags>  (1) 
['Fragmenstein placed']

>  <original ID>  (1) 
KFPUAEUJDAQILP-QMMMGPOBSA-N

>  <alias>  (1) 
None

>  <ref_mols>  (1) 
d0254a,d0615b

>  <HIPPO Pose ID>  (1) 
55560

>  <ref_pdb>  (1) 
d0615b

>  <scratch_subdir>  (1) 
/opt/xchem-fragalysis-2/maxwin/BulkDock/SCRATCH/217041/C25149-P51

>  <HIPPO Compound ID>  (1) 
25149

>  <exports>  (1) 
['/opt/xchem-fragalysis-2/maxwin/BulkDock/OUTPUTS/RdRp_knitwork_primer_grip_n_pocket_pure_split1800_batch007_217041.sdf']

>  <fragmenstein_runtime>  (1) 
4.259809

>  <fragmenstein_error>  (1) 
None

>  <distance_score>  (1) 
0.988784

>  <csv_name>  (1) 
RdRp_knitwork_primer_grip_n_pocket_pure_split1800_batch007.csv

>  <inchikey>  (1) 
KFPUAEUJDAQILP-QMMMGPOBSA-N

>  <SLURM_JOB_NAME>  (1) 
BulkDock.place:Flavi_NS5_RdRp:RdRp_knitwork_primer_grip_n_pocket_pure_split1800_batch007

>  <SLURM_JOB_ID>  (1) 
217041

>  <name>  (1) 
KFPUAEUJDAQILP-QMMMGPOBSA-N

$$$$
55704
     RDKit          3D

 20 21  0  0  0  0  0  0  0  0999 V2000
  -16.4907  -41.7856  -27.1679 C   0  0  0  0  0  0  0  0  0  0  0  0
  -15.8916  -40.8099  -26.1683 C   0  0  0  0  0  0  0  0  0  0  0  0
  -16.0036  -41.4126  -24.7665 C   0  0  0  0  0  0  0  0  0  0  0  0
  -15.8681  -40.3722  -23.6653 C   0  0  0  0  0  0  0  0  0  0  0  0
  -16.7164  -39.1923  -23.8479 N   0  0  0  0  0  0  0  0  0  0  0  0
  -18.1755  -39.4001  -23.7172 C   0  0  0  0  0  0  0  0  0  0  0  0
  -18.5656  -40.1624  -22.4256 C   0  0  0  0  0  0  0  0  0  0  0  0
  -18.5546  -39.6747  -21.3631 O   0  0  0  0  0  0  0  0  0  0  0  0
  -18.8635  -41.6290  -22.8598 N   0  0  0  0  0  0  0  0  0  0  0  0
  -19.1111  -42.7972  -22.0737 C   0  0  0  0  0  0  0  0  0  0  0  0
  -17.8247  -43.1419  -21.4021 C   0  0  0  0  0  0  0  0  0  0  0  0
  -16.8082  -43.8495  -21.9265 C   0  0  0  0  0  0  0  0  0  0  0  0
  -15.6118  -44.0417  -21.1136 C   0  0  0  0  0  0  0  0  0  0  0  0
  -14.4879  -43.2434  -21.3080 C   0  0  0  0  0  0  0  0  0  0  0  0
  -13.4315  -43.3254  -20.4129 C   0  0  0  0  0  0  0  0  0  0  0  0
  -13.5260  -44.2248  -19.3678 C   0  0  0  0  0  0  0  0  0  0  0  0
  -14.5733  -45.0575  -19.1658 N   0  0  0  0  0  0  0  0  0  0  0  0
  -15.5995  -44.9311  -20.0408 C   0  0  0  0  0  0  0  0  0  0  0  0
  -16.3676  -38.5281  -25.1097 C   0  0  0  0  0  0  0  0  0  0  0  0
  -16.5685  -39.4332  -26.3233 C   0  0  0  0  0  0  0  0  0  0  0  0
  1  2  1  0
  2  3  1  0
  3  4  1  0
  4  5  1  0
  5  6  1  0
  6  7  1  0
  7  8  2  0
  7  9  1  0
  9 10  1  0
 10 11  1  0
 11 12  2  3
 12 13  1  0
 13 14  2  0
 14 15  1  0
 15 16  2  0
 16 17  1  0
 17 18  2  0
  5 19  1  0
 19 20  1  0
 20  2  1  0
 18 13  1  0
M  END
>  <fragmenstein_mode>  (2) 
expansion

>  <original SMILES>  (2) 
CC1CCN(CC(=O)NCC=Cc2cccnc2)CC1

>  <fragmenstein_outcome>  (2) 
acceptable

>  <energy_score>  (2) 
-46.7338

>  <tags>  (2) 
['Fragmenstein placed']

>  <original ID>  (2) 
KJKAAYQWGIVSOZ-UHFFFAOYSA-N

>  <alias>  (2) 
None

>  <ref_mols>  (2) 
d0472a,d0851a,z0193a

>  <HIPPO Pose ID>  (2) 
55704

>  <ref_pdb>  (2) 
d0472a

>  <scratch_subdir>  (2) 
/opt/xchem-fragalysis-2/maxwin/BulkDock/SCRATCH/217037/C11901-P42

>  <HIPPO Compound ID>  (2) 
11901

>  <exports>  (2) 
['/opt/xchem-fragalysis-2/maxwin/BulkDock/OUTPUTS/RdRp_knitwork_primer_grip_n_pocket_pure_split1800_batch003_217037.sdf']

>  <fragmenstein_runtime>  (2) 
3.728476

>  <fragmenstein_error>  (2) 
None

>  <distance_score>  (2) 
1.813037

>  <csv_name>  (2) 
RdRp_knitwork_primer_grip_n_pocket_pure_split1800_batch003.csv

>  <inchikey>  (2) 
KJKAAYQWGIVSOZ-UHFFFAOYSA-N

>  <SLURM_JOB_NAME>  (2) 
BulkDock.place:Flavi_NS5_RdRp:RdRp_knitwork_primer_grip_n_pocket_pure_split1800_batch003

>  <SLURM_JOB_ID>  (2) 
217037

>  <name>  (2) 
KJKAAYQWGIVSOZ-UHFFFAOYSA-N

$$$$
55812
     RDKit          3D

 21 23  0  0  0  0  0  0  0  0999 V2000
  -18.4350  -44.2407  -23.1681 C   0  0  0  0  0  0  0  0  0  0  0  0
  -17.6867  -44.9969  -22.0725 C   0  0  1  0  0  0  0  0  0  0  0  0
  -16.2372  -44.5796  -21.7552 C   0  0  0  0  0  0  0  0  0  0  0  0
  -15.6177  -43.5945  -22.7358 C   0  0  0  0  0  0  0  0  0  0  0  0
  -15.5434  -43.8152  -23.8815 O   0  0  0  0  0  0  0  0  0  0  0  0
  -15.1596  -42.3509  -21.9153 N   0  0  0  0  0  0  0  0  0  0  0  0
  -14.6326  -41.1536  -22.3314 C   0  0  0  0  0  0  0  0  0  0  0  0
  -13.8517  -40.4199  -21.4656 C   0  0  0  0  0  0  0  0  0  0  0  0
  -13.3461  -39.3873  -22.1877 N   0  0  0  0  0  0  0  0  0  0  0  0
  -13.7985  -39.3396  -23.4402 N   0  0  0  0  0  0  0  0  0  0  0  0
  -14.6326  -40.3969  -23.5450 C   0  0  0  0  0  0  0  0  0  0  0  0
  -15.5374  -40.5625  -24.8534 C   0  0  0  0  0  0  0  0  0  0  0  0
  -15.2849  -39.9215  -25.9802 N   0  0  0  0  0  0  0  0  0  0  0  0
  -16.2280  -40.2366  -26.9363 C   0  0  0  0  0  0  0  0  0  0  0  0
  -17.2532  -41.0445  -26.5069 C   0  0  0  0  0  0  0  0  0  0  0  0
  -17.0181  -41.4316  -24.8679 S   0  0  0  0  0  0  0  0  0  0  0  0
  -18.4659  -44.9966  -20.8245 N   0  0  0  0  0  0  0  0  0  0  0  0
  -19.1031  -43.9257  -20.2496 C   0  0  0  0  0  0  0  0  0  0  0  0
  -19.6570  -44.3488  -19.0601 C   0  0  0  0  0  0  0  0  0  0  0  0
  -19.3193  -45.7111  -18.8993 C   0  0  0  0  0  0  0  0  0  0  0  0
  -18.5683  -46.0770  -19.9931 C   0  0  0  0  0  0  0  0  0  0  0  0
  2  1  1  6
  2  3  1  0
  3  4  1  0
  4  5  2  0
  4  6  1  0
  6  7  1  0
  7  8  2  0
  8  9  1  0
  9 10  1  0
 10 11  2  0
 11 12  1  0
 12 13  2  0
 13 14  1  0
 14 15  2  0
 15 16  1  0
  2 17  1  0
 17 18  1  0
 18 19  2  0
 19 20  1  0
 20 21  2  0
 11  7  1  0
 16 12  1  0
 21 17  1  0
M  END
>  <fragmenstein_mode>  (3) 
expansion

>  <original SMILES>  (3) 
C[C@@H](CC(=O)Nc1c[nH]nc1-c1nccs1)n1cccc1

>  <fragmenstein_outcome>  (3) 
acceptable

>  <energy_score>  (3) 
-54.400173

>  <tags>  (3) 
['Fragmenstein placed']

>  <original ID>  (3) 
VWAMYSBDXCFQCU-JTQLQIEISA-N

>  <alias>  (3) 
None

>  <ref_mols>  (3) 
d0160a,d0264a

>  <HIPPO Pose ID>  (3) 
55812

>  <ref_pdb>  (3) 
d0160a

>  <scratch_subdir>  (3) 
/opt/xchem-fragalysis-2/maxwin/BulkDock/SCRATCH/217047/C20751-P12

>  <HIPPO Compound ID>  (3) 
20751

>  <exports>  (3) 
['/opt/xchem-fragalysis-2/maxwin/BulkDock/OUTPUTS/RdRp_knitwork_primer_grip_n_pocket_pure_split1800_batch013_217047.sdf']

>  <fragmenstein_runtime>  (3) 
8.727745

>  <fragmenstein_error>  (3) 
None

>  <distance_score>  (3) 
0.750104

>  <csv_name>  (3) 
RdRp_knitwork_primer_grip_n_pocket_pure_split1800_batch013.csv

>  <inchikey>  (3) 
VWAMYSBDXCFQCU-JTQLQIEISA-N

>  <SLURM_JOB_NAME>  (3) 
BulkDock.place:Flavi_NS5_RdRp:RdRp_knitwork_primer_grip_n_pocket_pure_split1800_batch013

>  <SLURM_JOB_ID>  (3) 
217047

>  <name>  (3) 
VWAMYSBDXCFQCU-JTQLQIEISA-N

$$$$
55937
     RDKit          3D

 22 24  0  0  0  0  0  0  0  0999 V2000
  -15.8389  -44.0353  -22.9572 O   0  0  0  0  0  0  0  0  0  0  0  0
  -15.4343  -43.7510  -21.8976 C   0  0  0  0  0  0  0  0  0  0  0  0
  -15.5696  -44.6009  -20.6249 C   0  0  0  0  0  0  0  0  0  0  0  0
  -16.1674  -46.0028  -20.7752 C   0  0  0  0  0  0  0  0  0  0  0  0
  -17.6162  -46.0979  -21.2633 C   0  0  0  0  0  0  0  0  0  0  0  0
  -18.5207  -45.2554  -20.4247 C   0  0  0  0  0  0  0  0  0  0  0  0
  -18.7792  -43.9930  -20.6922 N   0  0  0  0  0  0  0  0  0  0  0  0
  -19.4766  -43.4326  -19.6480 C   0  0  0  0  0  0  0  0  0  0  0  0
  -19.8248  -44.2935  -18.6320 C   0  0  0  0  0  0  0  0  0  0  0  0
  -19.1752  -45.8418  -18.9493 S   0  0  0  0  0  0  0  0  0  0  0  0
  -14.6763  -42.4717  -21.4123 N   0  0  0  0  0  0  0  0  0  0  0  0
  -14.3669  -41.3078  -22.0815 C   0  0  0  0  0  0  0  0  0  0  0  0
  -13.4977  -40.4498  -21.4366 C   0  0  0  0  0  0  0  0  0  0  0  0
  -13.3080  -39.3925  -22.2551 N   0  0  0  0  0  0  0  0  0  0  0  0
  -14.0134  -39.4587  -23.3774 N   0  0  0  0  0  0  0  0  0  0  0  0
  -14.6784  -40.6393  -23.3205 C   0  0  0  0  0  0  0  0  0  0  0  0
  -15.6056  -40.9310  -24.4244 C   0  0  0  0  0  0  0  0  0  0  0  0
  -15.3325  -40.4417  -25.7181 C   0  0  0  0  0  0  0  0  0  0  0  0
  -16.2682  -40.5526  -26.7500 C   0  0  0  0  0  0  0  0  0  0  0  0
  -17.4939  -41.1560  -26.4981 C   0  0  0  0  0  0  0  0  0  0  0  0
  -17.7696  -41.6783  -25.2383 C   0  0  0  0  0  0  0  0  0  0  0  0
  -16.8376  -41.5499  -24.2045 C   0  0  0  0  0  0  0  0  0  0  0  0
  1  2  2  0
  2  3  1  0
  3  4  1  0
  4  5  1  0
  5  6  1  0
  6  7  2  0
  7  8  1  0
  8  9  2  0
  9 10  1  0
  2 11  1  0
 11 12  1  0
 12 13  2  0
 13 14  1  0
 14 15  1  0
 15 16  2  0
 16 17  1  0
 17 18  2  0
 18 19  1  0
 19 20  2  0
 20 21  1  0
 21 22  2  0
 10  6  1  0
 16 12  1  0
 22 17  1  0
M  END
>  <fragmenstein_mode>  (4) 
expansion

>  <original SMILES>  (4) 
O=C(CCCc1nccs1)Nc1c[nH]nc1-c1ccccc1

>  <fragmenstein_outcome>  (4) 
acceptable

>  <energy_score>  (4) 
-41.634935

>  <tags>  (4) 
['Fragmenstein placed']

>  <original ID>  (4) 
RXYWUMKGERGUKH-UHFFFAOYSA-N

>  <alias>  (4) 
None

>  <ref_mols>  (4) 
d0160a,d0264a

>  <HIPPO Pose ID>  (4) 
55937

>  <ref_pdb>  (4) 
d0160a

>  <scratch_subdir>  (4) 
/opt/xchem-fragalysis-2/maxwin/BulkDock/SCRATCH/217047/C23123-P12

>  <HIPPO Compound ID>  (4) 
23123

>  <exports>  (4) 
['/opt/xchem-fragalysis-2/maxwin/BulkDock/OUTPUTS/RdRp_knitwork_primer_grip_n_pocket_pure_split1800_batch013_217047.sdf']

>  <fragmenstein_runtime>  (4) 
5.024403

>  <fragmenstein_error>  (4) 
None

>  <distance_score>  (4) 
0.936556

>  <csv_name>  (4) 
RdRp_knitwork_primer_grip_n_pocket_pure_split1800_batch013.csv

>  <inchikey>  (4) 
RXYWUMKGERGUKH-UHFFFAOYSA-N

>  <SLURM_JOB_NAME>  (4) 
BulkDock.place:Flavi_NS5_RdRp:RdRp_knitwork_primer_grip_n_pocket_pure_split1800_batch013

>  <SLURM_JOB_ID>  (4) 
217047

>  <name>  (4) 
RXYWUMKGERGUKH-UHFFFAOYSA-N

$$$$
56073
     RDKit          3D

 19 21  0  0  0  0  0  0  0  0999 V2000
  -13.4567  -40.3864  -21.6990 C   0  0  0  0  0  0  0  0  0  0  0  0
  -14.2747  -41.2458  -22.4611 C   0  0  0  0  0  0  0  0  0  0  0  0
  -14.5805  -40.5183  -23.5866 C   0  0  0  0  0  0  0  0  0  0  0  0
  -15.3719  -40.8114  -24.7226 C   0  0  0  0  0  0  0  0  0  0  0  0
  -15.3067  -40.3142  -26.0123 C   0  0  0  0  0  0  0  0  0  0  0  0
  -16.4339  -40.8198  -26.7107 C   0  0  0  0  0  0  0  0  0  0  0  0
  -17.1267  -41.5772  -25.7923 C   0  0  0  0  0  0  0  0  0  0  0  0
  -18.4462  -42.2453  -25.7594 C   0  0  0  0  0  0  0  0  0  0  0  0
  -19.0768  -42.1046  -24.4223 N   0  0  0  0  0  0  0  0  0  0  0  0
  -18.7738  -43.2575  -23.5409 C   0  0  0  0  0  0  0  0  0  0  0  0
  -18.7639  -42.8706  -22.0400 C   0  0  0  0  0  0  0  0  0  0  0  0
  -18.8148  -44.0462  -21.1098 C   0  0  0  0  0  0  0  0  0  0  0  0
  -19.2419  -44.0381  -19.7924 C   0  0  0  0  0  0  0  0  0  0  0  0
  -19.0698  -45.5959  -19.1004 S   0  0  0  0  0  0  0  0  0  0  0  0
  -18.4323  -46.1589  -20.5874 C   0  0  0  0  0  0  0  0  0  0  0  0
  -18.3516  -45.2723  -21.5541 N   0  0  0  0  0  0  0  0  0  0  0  0
  -16.4409  -41.6337  -24.6234 O   0  0  0  0  0  0  0  0  0  0  0  0
  -14.0230  -39.2952  -23.3986 N   0  0  0  0  0  0  0  0  0  0  0  0
  -13.2950  -39.1888  -22.2750 N   0  0  0  0  0  0  0  0  0  0  0  0
  1  2  1  0
  2  3  2  0
  3  4  1  0
  4  5  2  0
  5  6  1  0
  6  7  2  0
  7  8  1  0
  8  9  1  0
  9 10  1  0
 10 11  1  0
 11 12  1  0
 12 13  2  0
 13 14  1  0
 14 15  1  0
 15 16  2  0
  7 17  1  0
  3 18  1  0
 18 19  1  0
 19  1  2  0
 17  4  1  0
 16 12  1  0
M  END
>  <fragmenstein_mode>  (5) 
expansion

>  <original SMILES>  (5) 
c1cc(-c2ccc(CNCCc3cscn3)o2)[nH]n1

>  <fragmenstein_outcome>  (5) 
acceptable

>  <energy_score>  (5) 
-86.912862

>  <tags>  (5) 
['Fragmenstein placed']

>  <original ID>  (5) 
UIHNHSGAWWYZJJ-UHFFFAOYSA-N

>  <alias>  (5) 
None

>  <ref_mols>  (5) 
d0160a,d0264a

>  <HIPPO Pose ID>  (5) 
56073

>  <ref_pdb>  (5) 
d0160a

>  <scratch_subdir>  (5) 
/opt/xchem-fragalysis-2/maxwin/BulkDock/SCRATCH/217045/C13787-P12

>  <HIPPO Compound ID>  (5) 
13787

>  <exports>  (5) 
['/opt/xchem-fragalysis-2/maxwin/BulkDock/OUTPUTS/RdRp_knitwork_primer_grip_n_pocket_pure_split1800_batch011_217045.sdf']

>  <fragmenstein_runtime>  (5) 
2.926062

>  <fragmenstein_error>  (5) 
None

>  <distance_score>  (5) 
0.977447

>  <csv_name>  (5) 
RdRp_knitwork_primer_grip_n_pocket_pure_split1800_batch011.csv

>  <inchikey>  (5) 
UIHNHSGAWWYZJJ-UHFFFAOYSA-N

>  <SLURM_JOB_NAME>  (5) 
BulkDock.place:Flavi_NS5_RdRp:RdRp_knitwork_primer_grip_n_pocket_pure_split1800_batch011

>  <SLURM_JOB_ID>  (5) 
217045

>  <name>  (5) 
UIHNHSGAWWYZJJ-UHFFFAOYSA-N

$$$$
56422
     RDKit          3D

 19 22  0  0  0  0  0  0  0  0999 V2000
  -15.0397  -41.0637  -25.1751 Br  0  0  0  0  0  0  0  0  0  0  0  0
  -15.9873  -42.2736  -24.0889 C   0  0  0  0  0  0  0  0  0  0  0  0
  -17.0901  -42.8854  -24.6809 C   0  0  0  0  0  0  0  0  0  0  0  0
  -17.9109  -43.7089  -23.9280 C   0  0  0  0  0  0  0  0  0  0  0  0
  -17.5907  -43.8947  -22.6022 C   0  0  0  0  0  0  0  0  0  0  0  0
  -16.5140  -43.3391  -22.0092 N   0  0  0  0  0  0  0  0  0  0  0  0
  -15.6825  -42.5582  -22.7534 C   0  0  0  0  0  0  0  0  0  0  0  0
  -14.4554  -42.1332  -22.1607 N   0  0  0  0  0  0  0  0  0  0  0  0
  -13.9824  -42.8748  -20.9793 C   0  0  0  0  0  0  0  0  0  0  0  0
  -14.5031  -41.7100  -20.1245 C   0  0  0  0  0  0  0  0  0  0  0  0
  -14.3242  -40.9291  -21.3920 C   0  0  1  0  0  0  0  0  0  0  0  0
  -13.0143  -40.1670  -21.4932 C   0  0  0  0  0  0  0  0  0  0  0  0
  -13.7806  -39.1470  -22.3673 C   0  0  2  0  0  0  0  0  0  0  0  0
  -13.2792  -37.7123  -22.1111 C   0  0  0  0  0  0  0  0  0  0  0  0
  -12.0693  -37.3356  -22.4581 N   0  0  0  0  0  0  0  0  0  0  0  0
  -11.9161  -36.0829  -21.9301 C   0  0  0  0  0  0  0  0  0  0  0  0
  -13.0715  -35.6758  -21.3083 C   0  0  0  0  0  0  0  0  0  0  0  0
  -13.9494  -36.7130  -21.4671 N   0  0  0  0  0  0  0  0  0  0  0  0
  -15.0827  -39.6509  -21.6718 C   0  0  0  0  0  0  0  0  0  0  0  0
  1  2  1  0
  2  3  2  0
  3  4  1  0
  4  5  2  0
  5  6  1  0
  6  7  2  0
  7  8  1  0
  8  9  1  0
  9 10  1  0
 11 10  1  1
 11 12  1  0
 12 13  1  0
 13 14  1  1
 14 15  2  0
 15 16  1  0
 16 17  2  0
 17 18  1  0
 13 19  1  0
  7  2  1  0
 11  8  1  0
 18 14  1  0
 19 11  1  0
M  END
>  <fragmenstein_mode>  (6) 
expansion

>  <original SMILES>  (6) 
Brc1cccnc1N1CC[C@]12C[C@@H](c1ncc[nH]1)C2

>  <fragmenstein_outcome>  (6) 
acceptable

>  <energy_score>  (6) 
-35.408469

>  <tags>  (6) 
['Fragmenstein placed']

>  <original ID>  (6) 
OFPNMMKEJPSNDR-YPFXGUDJSA-N

>  <alias>  (6) 
None

>  <ref_mols>  (6) 
d0615b,z0103a

>  <HIPPO Pose ID>  (6) 
56422

>  <ref_pdb>  (6) 
d0615b

>  <scratch_subdir>  (6) 
/opt/xchem-fragalysis-2/maxwin/BulkDock/SCRATCH/217048/C13762-P51

>  <HIPPO Compound ID>  (6) 
13762

>  <exports>  (6) 
['/opt/xchem-fragalysis-2/maxwin/BulkDock/OUTPUTS/RdRp_knitwork_primer_grip_n_pocket_pure_split1800_batch014_217048.sdf']

>  <fragmenstein_runtime>  (6) 
10.688317

>  <fragmenstein_error>  (6) 
None

>  <distance_score>  (6) 
0.93079

>  <csv_name>  (6) 
RdRp_knitwork_primer_grip_n_pocket_pure_split1800_batch014.csv

>  <inchikey>  (6) 
OFPNMMKEJPSNDR-YPFXGUDJSA-N

>  <SLURM_JOB_NAME>  (6) 
BulkDock.place:Flavi_NS5_RdRp:RdRp_knitwork_primer_grip_n_pocket_pure_split1800_batch014

>  <SLURM_JOB_ID>  (6) 
217048

>  <name>  (6) 
OFPNMMKEJPSNDR-YPFXGUDJSA-N

$$$$
56447
     RDKit          3D

 23 25  0  0  0  0  0  0  0  0999 V2000
  -13.2362  -44.3166  -18.7391 O   0  0  0  0  0  0  0  0  0  0  0  0
  -14.2548  -43.8366  -18.8838 C   0  0  0  0  0  0  0  0  0  0  0  0
  -15.6684  -44.4723  -18.8945 N   0  0  0  0  0  0  0  0  0  0  0  0
  -16.0722  -45.8609  -18.8191 C   0  0  0  0  0  0  0  0  0  0  0  0
  -16.9387  -46.3120  -20.0125 C   0  0  0  0  0  0  0  0  0  0  0  0
  -18.2426  -45.5712  -20.0681 C   0  0  0  0  0  0  0  0  0  0  0  0
  -18.5718  -44.7134  -21.0148 N   0  0  0  0  0  0  0  0  0  0  0  0
  -19.7996  -44.1517  -20.7238 C   0  0  0  0  0  0  0  0  0  0  0  0
  -20.3885  -44.5796  -19.5557 C   0  0  0  0  0  0  0  0  0  0  0  0
  -19.4010  -45.7547  -18.8060 S   0  0  0  0  0  0  0  0  0  0  0  0
  -14.6304  -42.3825  -19.2277 N   0  0  0  0  0  0  0  0  0  0  0  0
  -13.7928  -41.2526  -19.5547 C   0  0  0  0  0  0  0  0  0  0  0  0
  -13.8960  -41.0741  -21.0426 C   0  0  0  0  0  0  0  0  0  0  0  0
  -14.4108  -42.0249  -21.9597 C   0  0  0  0  0  0  0  0  0  0  0  0
  -14.5063  -41.3808  -23.1690 C   0  0  0  0  0  0  0  0  0  0  0  0
  -15.2132  -41.7626  -24.3844 C   0  0  0  0  0  0  0  0  0  0  0  0
  -15.0655  -41.0716  -25.5902 C   0  0  0  0  0  0  0  0  0  0  0  0
  -15.9932  -41.2211  -26.6098 C   0  0  0  0  0  0  0  0  0  0  0  0
  -16.9976  -42.1554  -26.4555 C   0  0  0  0  0  0  0  0  0  0  0  0
  -17.0786  -42.9622  -25.3354 C   0  0  0  0  0  0  0  0  0  0  0  0
  -16.1991  -42.7513  -24.2918 C   0  0  0  0  0  0  0  0  0  0  0  0
  -13.8291  -40.2043  -22.9602 N   0  0  0  0  0  0  0  0  0  0  0  0
  -13.5877  -39.9272  -21.6658 N   0  0  0  0  0  0  0  0  0  0  0  0
  1  2  2  0
  2  3  1  0
  3  4  1  0
  4  5  1  0
  5  6  1  0
  6  7  2  0
  7  8  1  0
  8  9  2  0
  9 10  1  0
  2 11  1  0
 11 12  1  0
 12 13  1  0
 13 14  1  0
 14 15  2  0
 15 16  1  0
 16 17  2  0
 17 18  1  0
 18 19  2  0
 19 20  1  0
 20 21  2  0
 15 22  1  0
 22 23  1  0
 10  6  1  0
 23 13  2  0
 21 16  1  0
M  END
>  <fragmenstein_mode>  (7) 
expansion

>  <original SMILES>  (7) 
O=C(NCCc1nccs1)NCc1cc(-c2ccccc2)[nH]n1

>  <fragmenstein_outcome>  (7) 
acceptable

>  <energy_score>  (7) 
-31.382042

>  <tags>  (7) 
['Fragmenstein placed']

>  <original ID>  (7) 
CCPNCJKSPAUVNR-UHFFFAOYSA-N

>  <alias>  (7) 
None

>  <ref_mols>  (7) 
d0160a,d0264a

>  <HIPPO Pose ID>  (7) 
56447

>  <ref_pdb>  (7) 
d0264a

>  <scratch_subdir>  (7) 
/opt/xchem-fragalysis-2/maxwin/BulkDock/SCRATCH/217047/C23723-P28

>  <HIPPO Compound ID>  (7) 
23723

>  <exports>  (7) 
['/opt/xchem-fragalysis-2/maxwin/BulkDock/OUTPUTS/RdRp_knitwork_primer_grip_n_pocket_pure_split1800_batch013_217047.sdf']

>  <fragmenstein_runtime>  (7) 
7.171136

>  <fragmenstein_error>  (7) 
None

>  <distance_score>  (7) 
0.979999

>  <csv_name>  (7) 
RdRp_knitwork_primer_grip_n_pocket_pure_split1800_batch013.csv

>  <inchikey>  (7) 
CCPNCJKSPAUVNR-UHFFFAOYSA-N

>  <SLURM_JOB_NAME>  (7) 
BulkDock.place:Flavi_NS5_RdRp:RdRp_knitwork_primer_grip_n_pocket_pure_split1800_batch013

>  <SLURM_JOB_ID>  (7) 
217047

>  <name>  (7) 
CCPNCJKSPAUVNR-UHFFFAOYSA-N

$$$$
56614
     RDKit          3D

 18 20  0  0  0  0  0  0  0  0999 V2000
  -14.2138  -39.3144  -23.6690 O   0  0  0  0  0  0  0  0  0  0  0  0
  -14.1564  -39.9132  -22.6673 C   0  0  0  0  0  0  0  0  0  0  0  0
  -13.3167  -39.4903  -21.4712 C   0  0  0  0  0  0  0  0  0  0  0  0
  -12.7351  -38.1405  -21.6973 C   0  0  0  0  0  0  0  0  0  0  0  0
  -11.4583  -37.8510  -21.8379 N   0  0  0  0  0  0  0  0  0  0  0  0
  -11.3963  -36.4843  -21.8899 C   0  0  0  0  0  0  0  0  0  0  0  0
  -12.6516  -35.9355  -21.8079 C   0  0  0  0  0  0  0  0  0  0  0  0
  -13.5020  -37.0002  -21.7297 N   0  0  0  0  0  0  0  0  0  0  0  0
  -14.8328  -41.2510  -22.2531 N   0  0  0  0  0  0  0  0  0  0  0  0
  -15.7448  -42.0330  -22.9196 C   0  0  0  0  0  0  0  0  0  0  0  0
  -15.8933  -41.9238  -24.2892 C   0  0  0  0  0  0  0  0  0  0  0  0
  -16.8527  -42.7097  -24.9004 C   0  0  0  0  0  0  0  0  0  0  0  0
  -17.6557  -43.5299  -24.1139 C   0  0  0  0  0  0  0  0  0  0  0  0
  -17.4548  -43.5948  -22.7341 C   0  0  0  0  0  0  0  0  0  0  0  0
  -18.3624  -44.4511  -21.8743 C   0  0  0  0  0  0  0  0  0  0  0  0
  -17.7671  -45.4126  -20.8743 C   0  0  0  0  0  0  0  0  0  0  0  0
  -18.4993  -44.1958  -20.3905 C   0  0  0  0  0  0  0  0  0  0  0  0
  -16.4766  -42.8596  -22.1456 N   0  0  0  0  0  0  0  0  0  0  0  0
  1  2  2  0
  2  3  1  0
  3  4  1  0
  4  5  2  0
  5  6  1  0
  6  7  2  0
  7  8  1  0
  2  9  1  0
  9 10  1  0
 10 11  2  0
 11 12  1  0
 12 13  2  0
 13 14  1  0
 14 15  1  0
 15 16  1  0
 16 17  1  0
 14 18  2  0
  8  4  1  0
 18 10  1  0
 17 15  1  0
M  END
>  <fragmenstein_mode>  (8) 
expansion

>  <original SMILES>  (8) 
O=C(Cc1ncc[nH]1)Nc1cccc(C2CC2)n1

>  <fragmenstein_outcome>  (8) 
acceptable

>  <energy_score>  (8) 
-30.176916

>  <tags>  (8) 
['Fragmenstein placed']

>  <original ID>  (8) 
MSOMUWZBSNBLTC-UHFFFAOYSA-N

>  <alias>  (8) 
None

>  <ref_mols>  (8) 
d0615b,z0103a

>  <HIPPO Pose ID>  (8) 
56614

>  <ref_pdb>  (8) 
d0615b

>  <scratch_subdir>  (8) 
/opt/xchem-fragalysis-2/maxwin/BulkDock/SCRATCH/217048/C14333-P51

>  <HIPPO Compound ID>  (8) 
14333

>  <exports>  (8) 
['/opt/xchem-fragalysis-2/maxwin/BulkDock/OUTPUTS/RdRp_knitwork_primer_grip_n_pocket_pure_split1800_batch014_217048.sdf']

>  <fragmenstein_runtime>  (8) 
6.190519

>  <fragmenstein_error>  (8) 
None

>  <distance_score>  (8) 
0.989503

>  <csv_name>  (8) 
RdRp_knitwork_primer_grip_n_pocket_pure_split1800_batch014.csv

>  <inchikey>  (8) 
MSOMUWZBSNBLTC-UHFFFAOYSA-N

>  <SLURM_JOB_NAME>  (8) 
BulkDock.place:Flavi_NS5_RdRp:RdRp_knitwork_primer_grip_n_pocket_pure_split1800_batch014

>  <SLURM_JOB_ID>  (8) 
217048

>  <name>  (8) 
MSOMUWZBSNBLTC-UHFFFAOYSA-N

$$$$
56630
     RDKit          3D

 15 16  0  0  0  0  0  0  0  0999 V2000
  -17.1965  -37.6989  -19.8246 C   0  0  0  0  0  0  0  0  0  0  0  0
  -15.7195  -37.7676  -20.1761 C   0  0  0  0  0  0  0  0  0  0  0  0
  -15.4447  -37.1401  -21.5401 C   0  0  0  0  0  0  0  0  0  0  0  0
  -14.0367  -37.1710  -21.8927 N   0  0  0  0  0  0  0  0  0  0  0  0
  -13.1219  -36.1902  -21.6165 C   0  0  0  0  0  0  0  0  0  0  0  0
  -11.9383  -36.6405  -22.1471 C   0  0  0  0  0  0  0  0  0  0  0  0
  -12.1070  -37.8742  -22.7232 N   0  0  0  0  0  0  0  0  0  0  0  0
  -13.3726  -38.2052  -22.5100 C   0  0  0  0  0  0  0  0  0  0  0  0
  -13.9263  -39.5174  -22.7868 C   0  0  0  0  0  0  0  0  0  0  0  0
  -14.8010  -39.7609  -23.6113 O   0  0  0  0  0  0  0  0  0  0  0  0
  -13.4644  -40.4968  -21.8388 C   0  0  0  0  0  0  0  0  0  0  0  0
  -12.4565  -40.4970  -20.8915 C   0  0  0  0  0  0  0  0  0  0  0  0
  -12.5969  -41.7153  -20.2126 C   0  0  0  0  0  0  0  0  0  0  0  0
  -13.6388  -42.4222  -20.6543 N   0  0  0  0  0  0  0  0  0  0  0  0
  -14.0715  -41.7148  -21.7092 N   0  0  0  0  0  0  0  0  0  0  0  0
  1  2  1  0
  2  3  1  0
  3  4  1  0
  4  5  1  0
  5  6  2  0
  6  7  1  0
  7  8  2  0
  8  9  1  0
  9 10  2  0
  9 11  1  0
 11 12  2  0
 12 13  1  0
 13 14  2  0
 14 15  1  0
  8  4  1  0
 15 11  1  0
M  END
>  <fragmenstein_mode>  (9) 
expansion

>  <original SMILES>  (9) 
CCCn1ccnc1C(=O)c1ccn[nH]1

>  <fragmenstein_outcome>  (9) 
acceptable

>  <energy_score>  (9) 
-10.706816

>  <tags>  (9) 
['Fragmenstein placed']

>  <original ID>  (9) 
DIYRQSLRWJBOTD-UHFFFAOYSA-N

>  <alias>  (9) 
None

>  <ref_mols>  (9) 
d0160a,z0103a

>  <HIPPO Pose ID>  (9) 
56630

>  <ref_pdb>  (9) 
d0160a

>  <scratch_subdir>  (9) 
/opt/xchem-fragalysis-2/maxwin/BulkDock/SCRATCH/217046/C24966-P12

>  <HIPPO Compound ID>  (9) 
24966

>  <exports>  (9) 
['/opt/xchem-fragalysis-2/maxwin/BulkDock/OUTPUTS/RdRp_knitwork_primer_grip_n_pocket_pure_split1800_batch012_217046.sdf']

>  <fragmenstein_runtime>  (9) 
1.235041

>  <fragmenstein_error>  (9) 
None

>  <distance_score>  (9) 
0.944862

>  <csv_name>  (9) 
RdRp_knitwork_primer_grip_n_pocket_pure_split1800_batch012.csv

>  <inchikey>  (9) 
DIYRQSLRWJBOTD-UHFFFAOYSA-N

>  <SLURM_JOB_NAME>  (9) 
BulkDock.place:Flavi_NS5_RdRp:RdRp_knitwork_primer_grip_n_pocket_pure_split1800_batch012

>  <SLURM_JOB_ID>  (9) 
217046

>  <name>  (9) 
DIYRQSLRWJBOTD-UHFFFAOYSA-N

$$$$
56912
     RDKit          3D

 22 23  0  0  0  0  0  0  0  0999 V2000
  -16.3771  -46.9254  -19.6183 C   0  0  0  0  0  0  0  0  0  0  0  0
  -17.1906  -46.1989  -20.6962 C   0  0  0  0  0  0  0  0  0  0  0  0
  -17.8382  -47.1871  -21.6609 C   0  0  0  0  0  0  0  0  0  0  0  0
  -16.3327  -45.2648  -21.4223 N   0  0  0  0  0  0  0  0  0  0  0  0
  -15.1779  -44.3790  -20.9279 C   0  0  0  0  0  0  0  0  0  0  0  0
  -14.6758  -44.3094  -19.8807 O   0  0  0  0  0  0  0  0  0  0  0  0
  -14.8234  -43.4673  -22.0536 C   0  0  0  0  0  0  0  0  0  0  0  0
  -14.5599  -42.2041  -21.6882 C   0  0  0  0  0  0  0  0  0  0  0  0
  -14.3240  -41.0760  -22.5167 C   0  0  0  0  0  0  0  0  0  0  0  0
  -13.6645  -39.8863  -22.1399 C   0  0  0  0  0  0  0  0  0  0  0  0
  -13.6215  -38.9873  -23.1276 N   0  0  0  0  0  0  0  0  0  0  0  0
  -14.2741  -39.6050  -24.1368 N   0  0  0  0  0  0  0  0  0  0  0  0
  -14.7092  -40.8637  -23.8176 C   0  0  0  0  0  0  0  0  0  0  0  0
  -18.2777  -45.3043  -20.1170 C   0  0  0  0  0  0  0  0  0  0  0  0
  -18.6055  -44.1544  -20.6761 N   0  0  0  0  0  0  0  0  0  0  0  0
  -19.3696  -43.3967  -19.8097 C   0  0  0  0  0  0  0  0  0  0  0  0
  -19.6351  -41.9569  -20.1160 C   0  0  0  0  0  0  0  0  0  0  0  0
  -19.5338  -41.6555  -21.4339 F   0  0  0  0  0  0  0  0  0  0  0  0
  -18.8004  -41.1261  -19.4428 F   0  0  0  0  0  0  0  0  0  0  0  0
  -20.9011  -41.6160  -19.7412 F   0  0  0  0  0  0  0  0  0  0  0  0
  -19.8190  -44.0967  -18.7027 C   0  0  0  0  0  0  0  0  0  0  0  0
  -19.1572  -45.6749  -18.6876 S   0  0  0  0  0  0  0  0  0  0  0  0
  1  2  1  0
  2  3  1  0
  2  4  1  0
  4  5  1  0
  5  6  2  0
  5  7  1  0
  7  8  2  3
  8  9  1  0
  9 10  1  0
 10 11  2  0
 11 12  1  0
 12 13  1  0
  2 14  1  0
 14 15  2  0
 15 16  1  0
 16 17  1  0
 17 18  1  0
 17 19  1  0
 17 20  1  0
 16 21  2  0
 21 22  1  0
 13  9  2  0
 22 14  1  0
M  END
>  <fragmenstein_mode>  (10) 
expansion

>  <original SMILES>  (10) 
CC(C)(NC(=O)C=Cc1cn[nH]c1)c1nc(C(F)(F)F)cs1

>  <fragmenstein_outcome>  (10) 
acceptable

>  <energy_score>  (10) 
-40.349686

>  <tags>  (10) 
['Fragmenstein placed']

>  <original ID>  (10) 
DADSAPQQDDUWHN-UHFFFAOYSA-N

>  <alias>  (10) 
None

>  <ref_mols>  (10) 
d0160a,d0264a

>  <HIPPO Pose ID>  (10) 
56912

>  <ref_pdb>  (10) 
d0160a

>  <scratch_subdir>  (10) 
/opt/xchem-fragalysis-2/maxwin/BulkDock/SCRATCH/217045/C10050-P12

>  <HIPPO Compound ID>  (10) 
10050

>  <exports>  (10) 
['/opt/xchem-fragalysis-2/maxwin/BulkDock/OUTPUTS/RdRp_knitwork_primer_grip_n_pocket_pure_split1800_batch011_217045.sdf']

>  <fragmenstein_runtime>  (10) 
3.948796

>  <fragmenstein_error>  (10) 
None

>  <distance_score>  (10) 
0.975081

>  <csv_name>  (10) 
RdRp_knitwork_primer_grip_n_pocket_pure_split1800_batch011.csv

>  <inchikey>  (10) 
DADSAPQQDDUWHN-UHFFFAOYSA-N

>  <SLURM_JOB_NAME>  (10) 
BulkDock.place:Flavi_NS5_RdRp:RdRp_knitwork_primer_grip_n_pocket_pure_split1800_batch011

>  <SLURM_JOB_ID>  (10) 
217045

>  <name>  (10) 
DADSAPQQDDUWHN-UHFFFAOYSA-N

$$$$
56921
     RDKit          3D

 19 20  0  0  0  0  0  0  0  0999 V2000
  -19.6317  -41.9444  -20.2182 C   0  0  0  0  0  0  0  0  0  0  0  0
  -19.4229  -43.3674  -19.8615 C   0  0  0  0  0  0  0  0  0  0  0  0
  -19.8797  -44.0410  -18.7460 C   0  0  0  0  0  0  0  0  0  0  0  0
  -19.2194  -45.6211  -18.7075 S   0  0  0  0  0  0  0  0  0  0  0  0
  -18.3254  -45.2621  -20.1327 C   0  0  0  0  0  0  0  0  0  0  0  0
  -17.2254  -46.1578  -20.6851 C   0  0  0  0  0  0  0  0  0  0  0  0
  -17.8521  -47.1572  -21.6532 C   0  0  0  0  0  0  0  0  0  0  0  0
  -16.4281  -46.8787  -19.5911 C   0  0  0  0  0  0  0  0  0  0  0  0
  -16.3580  -45.2325  -21.4129 N   0  0  0  0  0  0  0  0  0  0  0  0
  -15.1704  -44.3859  -20.9274 C   0  0  0  0  0  0  0  0  0  0  0  0
  -14.6452  -44.3483  -19.8901 O   0  0  0  0  0  0  0  0  0  0  0  0
  -14.8200  -43.4666  -22.0474 C   0  0  0  0  0  0  0  0  0  0  0  0
  -14.5672  -42.2025  -21.6788 C   0  0  0  0  0  0  0  0  0  0  0  0
  -14.3309  -41.0742  -22.5072 C   0  0  0  0  0  0  0  0  0  0  0  0
  -13.6852  -39.8785  -22.1260 C   0  0  0  0  0  0  0  0  0  0  0  0
  -13.6368  -38.9822  -23.1159 N   0  0  0  0  0  0  0  0  0  0  0  0
  -14.2629  -39.6111  -24.1345 N   0  0  0  0  0  0  0  0  0  0  0  0
  -14.6975  -40.8701  -23.8149 C   0  0  0  0  0  0  0  0  0  0  0  0
  -18.6578  -44.1225  -20.7127 N   0  0  0  0  0  0  0  0  0  0  0  0
  1  2  1  0
  2  3  2  0
  3  4  1  0
  4  5  1  0
  5  6  1  0
  6  7  1  0
  6  8  1  0
  6  9  1  0
  9 10  1  0
 10 11  2  0
 10 12  1  0
 12 13  2  3
 13 14  1  0
 14 15  1  0
 15 16  2  0
 16 17  1  0
 17 18  1  0
  5 19  2  0
 19  2  1  0
 18 14  2  0
M  END
>  <fragmenstein_mode>  (11) 
expansion

>  <original SMILES>  (11) 
Cc1csc(C(C)(C)NC(=O)C=Cc2cn[nH]c2)n1

>  <fragmenstein_outcome>  (11) 
acceptable

>  <energy_score>  (11) 
-28.812577

>  <tags>  (11) 
['Fragmenstein placed']

>  <original ID>  (11) 
UQSHJVZWGPXUMU-UHFFFAOYSA-N

>  <alias>  (11) 
None

>  <ref_mols>  (11) 
d0160a,d0264a

>  <HIPPO Pose ID>  (11) 
56921

>  <ref_pdb>  (11) 
d0160a

>  <scratch_subdir>  (11) 
/opt/xchem-fragalysis-2/maxwin/BulkDock/SCRATCH/217045/C10068-P12

>  <HIPPO Compound ID>  (11) 
10068

>  <exports>  (11) 
['/opt/xchem-fragalysis-2/maxwin/BulkDock/OUTPUTS/RdRp_knitwork_primer_grip_n_pocket_pure_split1800_batch011_217045.sdf']

>  <fragmenstein_runtime>  (11) 
3.008614

>  <fragmenstein_error>  (11) 
None

>  <distance_score>  (11) 
0.971142

>  <csv_name>  (11) 
RdRp_knitwork_primer_grip_n_pocket_pure_split1800_batch011.csv

>  <inchikey>  (11) 
UQSHJVZWGPXUMU-UHFFFAOYSA-N

>  <SLURM_JOB_NAME>  (11) 
BulkDock.place:Flavi_NS5_RdRp:RdRp_knitwork_primer_grip_n_pocket_pure_split1800_batch011

>  <SLURM_JOB_ID>  (11) 
217045

>  <name>  (11) 
UQSHJVZWGPXUMU-UHFFFAOYSA-N

$$$$
57061
     RDKit          3D

 22 24  0  0  0  0  0  0  0  0999 V2000
  -17.7041  -43.0649  -23.0216 O   0  0  0  0  0  0  0  0  0  0  0  0
  -18.0199  -43.5701  -22.0225 C   0  0  0  0  0  0  0  0  0  0  0  0
  -18.7473  -42.9900  -20.7994 N   0  0  0  0  0  0  0  0  0  0  0  0
  -19.3268  -41.6839  -20.5841 C   0  0  0  0  0  0  0  0  0  0  0  0
  -20.6307  -41.4651  -21.3544 C   0  0  0  0  0  0  0  0  0  0  0  0
  -21.8877  -41.8244  -20.5950 C   0  0  0  0  0  0  0  0  0  0  0  0
  -22.1177  -43.1183  -20.1328 C   0  0  0  0  0  0  0  0  0  0  0  0
  -23.3379  -43.4146  -19.5278 C   0  0  0  0  0  0  0  0  0  0  0  0
  -24.2974  -42.4199  -19.4052 C   0  0  0  0  0  0  0  0  0  0  0  0
  -23.9888  -41.1578  -19.8781 C   0  0  0  0  0  0  0  0  0  0  0  0
  -22.8151  -40.8410  -20.4683 N   0  0  0  0  0  0  0  0  0  0  0  0
  -17.7407  -44.9679  -21.7518 C   0  0  0  0  0  0  0  0  0  0  0  0
  -18.3522  -46.0557  -22.3493 C   0  0  0  0  0  0  0  0  0  0  0  0
  -17.9671  -47.2161  -21.6471 C   0  0  0  0  0  0  0  0  0  0  0  0
  -17.0199  -46.8337  -20.7294 C   0  0  0  0  0  0  0  0  0  0  0  0
  -16.7826  -45.4871  -20.9080 N   0  0  0  0  0  0  0  0  0  0  0  0
  -15.5992  -44.8312  -20.3685 C   0  0  0  0  0  0  0  0  0  0  0  0
  -14.8869  -43.8732  -21.3289 C   0  0  0  0  0  0  0  0  0  0  0  0
  -13.5937  -43.3705  -20.6992 C   0  0  0  0  0  0  0  0  0  0  0  0
  -13.8392  -42.7608  -19.3899 N   0  0  0  0  0  0  0  0  0  0  0  0
  -14.4933  -43.6752  -18.4617 C   0  0  0  0  0  0  0  0  0  0  0  0
  -15.8254  -44.1802  -19.0103 C   0  0  0  0  0  0  0  0  0  0  0  0
  1  2  2  0
  2  3  1  0
  3  4  1  0
  4  5  1  0
  5  6  1  0
  6  7  2  0
  7  8  1  0
  8  9  2  0
  9 10  1  0
 10 11  2  0
  2 12  1  0
 12 13  2  0
 13 14  1  0
 14 15  2  0
 15 16  1  0
 16 17  1  0
 17 18  1  0
 18 19  1  0
 19 20  1  0
 20 21  1  0
 21 22  1  0
 11  6  1  0
 16 12  1  0
 22 17  1  0
M  END
>  <fragmenstein_mode>  (12) 
expansion

>  <original SMILES>  (12) 
O=C(NCCc1ccccn1)c1cccn1C1CCNCC1

>  <fragmenstein_outcome>  (12) 
acceptable

>  <energy_score>  (12) 
-41.710727

>  <tags>  (12) 
['Fragmenstein placed']

>  <original ID>  (12) 
ONMVMPIETUJGPU-UHFFFAOYSA-N

>  <alias>  (12) 
None

>  <ref_mols>  (12) 
d0472a,z0193a

>  <HIPPO Pose ID>  (12) 
57061

>  <ref_pdb>  (12) 
d0472a

>  <scratch_subdir>  (12) 
/opt/xchem-fragalysis-2/maxwin/BulkDock/SCRATCH/217044/C15413-P42

>  <HIPPO Compound ID>  (12) 
15413

>  <exports>  (12) 
['/opt/xchem-fragalysis-2/maxwin/BulkDock/OUTPUTS/RdRp_knitwork_primer_grip_n_pocket_pure_split1800_batch010_217044.sdf']

>  <fragmenstein_runtime>  (12) 
6.909584

>  <fragmenstein_error>  (12) 
None

>  <distance_score>  (12) 
0.892571

>  <csv_name>  (12) 
RdRp_knitwork_primer_grip_n_pocket_pure_split1800_batch010.csv

>  <inchikey>  (12) 
ONMVMPIETUJGPU-UHFFFAOYSA-N

>  <SLURM_JOB_NAME>  (12) 
BulkDock.place:Flavi_NS5_RdRp:RdRp_knitwork_primer_grip_n_pocket_pure_split1800_batch010

>  <SLURM_JOB_ID>  (12) 
217044

>  <name>  (12) 
ONMVMPIETUJGPU-UHFFFAOYSA-N

$$$$
57096
     RDKit          3D

 17 19  0  0  0  0  0  0  0  0999 V2000
  -11.7164  -40.3822  -20.0220 C   0  0  0  0  0  0  0  0  0  0  0  0
  -12.7534  -40.4059  -21.0207 N   0  0  0  0  0  0  0  0  0  0  0  0
  -13.5243  -41.4937  -21.1700 N   0  0  0  0  0  0  0  0  0  0  0  0
  -14.3637  -41.1182  -22.1505 C   0  0  0  0  0  0  0  0  0  0  0  0
  -15.3859  -41.9609  -22.7808 C   0  0  0  0  0  0  0  0  0  0  0  0
  -15.6228  -41.8209  -24.1482 C   0  0  0  0  0  0  0  0  0  0  0  0
  -16.6483  -42.5557  -24.7326 C   0  0  0  0  0  0  0  0  0  0  0  0
  -17.4151  -43.3979  -23.9381 C   0  0  0  0  0  0  0  0  0  0  0  0
  -17.1011  -43.4997  -22.5932 C   0  0  0  0  0  0  0  0  0  0  0  0
  -16.1176  -42.7954  -21.9919 N   0  0  0  0  0  0  0  0  0  0  0  0
  -14.1834  -39.8099  -22.5618 N   0  0  0  0  0  0  0  0  0  0  0  0
  -13.1632  -39.4017  -21.8472 C   0  0  0  0  0  0  0  0  0  0  0  0
  -12.6328  -38.0933  -21.8824 C   0  0  0  0  0  0  0  0  0  0  0  0
  -11.3632  -37.7723  -21.7832 N   0  0  0  0  0  0  0  0  0  0  0  0
  -11.3418  -36.4022  -21.7951 C   0  0  0  0  0  0  0  0  0  0  0  0
  -12.6149  -35.8918  -21.8812 C   0  0  0  0  0  0  0  0  0  0  0  0
  -13.4283  -36.9845  -21.9798 N   0  0  0  0  0  0  0  0  0  0  0  0
  1  2  1  0
  2  3  1  0
  3  4  2  0
  4  5  1  0
  5  6  2  0
  6  7  1  0
  7  8  2  0
  8  9  1  0
  9 10  2  0
  4 11  1  0
 11 12  2  0
 12 13  1  0
 13 14  2  0
 14 15  1  0
 15 16  2  0
 16 17  1  0
 12  2  1  0
 17 13  1  0
 10  5  1  0
M  END
>  <fragmenstein_mode>  (13) 
expansion

>  <original SMILES>  (13) 
Cn1nc(-c2ccccn2)nc1-c1ncc[nH]1

>  <fragmenstein_outcome>  (13) 
acceptable

>  <energy_score>  (13) 
-37.891724

>  <tags>  (13) 
['Fragmenstein placed']

>  <original ID>  (13) 
IRHRPFQKOQWAOP-UHFFFAOYSA-N

>  <alias>  (13) 
None

>  <ref_mols>  (13) 
d0615b,z0103a

>  <HIPPO Pose ID>  (13) 
57096

>  <ref_pdb>  (13) 
d0615b

>  <scratch_subdir>  (13) 
/opt/xchem-fragalysis-2/maxwin/BulkDock/SCRATCH/217048/C15882-P51

>  <HIPPO Compound ID>  (13) 
15882

>  <exports>  (13) 
['/opt/xchem-fragalysis-2/maxwin/BulkDock/OUTPUTS/RdRp_knitwork_primer_grip_n_pocket_pure_split1800_batch014_217048.sdf']

>  <fragmenstein_runtime>  (13) 
3.631034

>  <fragmenstein_error>  (13) 
None

>  <distance_score>  (13) 
0.957359

>  <csv_name>  (13) 
RdRp_knitwork_primer_grip_n_pocket_pure_split1800_batch014.csv

>  <inchikey>  (13) 
IRHRPFQKOQWAOP-UHFFFAOYSA-N

>  <SLURM_JOB_NAME>  (13) 
BulkDock.place:Flavi_NS5_RdRp:RdRp_knitwork_primer_grip_n_pocket_pure_split1800_batch014

>  <SLURM_JOB_ID>  (13) 
217048

>  <name>  (13) 
IRHRPFQKOQWAOP-UHFFFAOYSA-N

$$$$
57097
     RDKit          3D

 21 23  0  0  0  0  0  0  0  0999 V2000
  -18.2550  -43.5835  -18.2667 O   0  0  0  0  0  0  0  0  0  0  0  0
  -18.6380  -43.8141  -19.3396 C   0  0  0  0  0  0  0  0  0  0  0  0
  -19.6020  -43.0350  -20.2382 N   0  0  0  0  0  0  0  0  0  0  0  0
  -20.3787  -41.8490  -19.9733 C   0  0  0  0  0  0  0  0  0  0  0  0
  -21.8592  -42.0862  -19.7938 C   0  0  0  0  0  0  0  0  0  0  0  0
  -22.3332  -43.1990  -19.1001 C   0  0  0  0  0  0  0  0  0  0  0  0
  -23.7064  -43.3639  -18.9419 C   0  0  0  0  0  0  0  0  0  0  0  0
  -24.5692  -42.4029  -19.4490 C   0  0  0  0  0  0  0  0  0  0  0  0
  -24.0196  -41.3074  -20.0904 C   0  0  0  0  0  0  0  0  0  0  0  0
  -22.6948  -41.1352  -20.2902 N   0  0  0  0  0  0  0  0  0  0  0  0
  -18.1259  -44.9610  -20.0754 C   0  0  0  0  0  0  0  0  0  0  0  0
  -18.8084  -46.0545  -20.5766 C   0  0  0  0  0  0  0  0  0  0  0  0
  -17.8783  -46.9517  -21.1456 C   0  0  0  0  0  0  0  0  0  0  0  0
  -16.6352  -46.4118  -20.9349 C   0  0  0  0  0  0  0  0  0  0  0  0
  -16.7953  -45.1743  -20.3663 N   0  0  0  0  0  0  0  0  0  0  0  0
  -15.7265  -44.2128  -20.1312 C   0  0  0  0  0  0  0  0  0  0  0  0
  -14.9708  -43.8483  -21.4085 C   0  0  0  0  0  0  0  0  0  0  0  0
  -13.9691  -42.7327  -21.1183 C   0  0  0  0  0  0  0  0  0  0  0  0
  -13.4536  -42.7191  -19.7467 N   0  0  0  0  0  0  0  0  0  0  0  0
  -13.3935  -44.0528  -19.1714 C   0  0  0  0  0  0  0  0  0  0  0  0
  -14.7809  -44.6653  -19.0143 C   0  0  0  0  0  0  0  0  0  0  0  0
  1  2  2  0
  2  3  1  0
  3  4  1  0
  4  5  1  0
  5  6  2  0
  6  7  1  0
  7  8  2  0
  8  9  1  0
  9 10  2  0
  2 11  1  0
 11 12  2  0
 12 13  1  0
 13 14  2  0
 14 15  1  0
 15 16  1  0
 16 17  1  0
 17 18  1  0
 18 19  1  0
 19 20  1  0
 20 21  1  0
 10  5  1  0
 15 11  1  0
 21 16  1  0
M  END
>  <fragmenstein_mode>  (14) 
expansion

>  <original SMILES>  (14) 
O=C(NCc1ccccn1)c1cccn1C1CCNCC1

>  <fragmenstein_outcome>  (14) 
acceptable

>  <energy_score>  (14) 
-33.512455

>  <tags>  (14) 
['Fragmenstein placed']

>  <original ID>  (14) 
ZJXXRVIHPNHLIS-UHFFFAOYSA-N

>  <alias>  (14) 
None

>  <ref_mols>  (14) 
d0472a,z0193a

>  <HIPPO Pose ID>  (14) 
57097

>  <ref_pdb>  (14) 
d0472a

>  <scratch_subdir>  (14) 
/opt/xchem-fragalysis-2/maxwin/BulkDock/SCRATCH/217044/C15937-P42

>  <HIPPO Compound ID>  (14) 
15937

>  <exports>  (14) 
['/opt/xchem-fragalysis-2/maxwin/BulkDock/OUTPUTS/RdRp_knitwork_primer_grip_n_pocket_pure_split1800_batch010_217044.sdf']

>  <fragmenstein_runtime>  (14) 
7.143402

>  <fragmenstein_error>  (14) 
None

>  <distance_score>  (14) 
0.998121

>  <csv_name>  (14) 
RdRp_knitwork_primer_grip_n_pocket_pure_split1800_batch010.csv

>  <inchikey>  (14) 
ZJXXRVIHPNHLIS-UHFFFAOYSA-N

>  <SLURM_JOB_NAME>  (14) 
BulkDock.place:Flavi_NS5_RdRp:RdRp_knitwork_primer_grip_n_pocket_pure_split1800_batch010

>  <SLURM_JOB_ID>  (14) 
217044

>  <name>  (14) 
ZJXXRVIHPNHLIS-UHFFFAOYSA-N

$$$$
57313
     RDKit          3D

 16 17  0  0  0  0  0  0  0  0999 V2000
  -19.3451  -41.8142  -20.5639 O   0  0  0  0  0  0  0  0  0  0  0  0
  -18.7952  -42.7943  -21.0497 C   0  0  0  0  0  0  0  0  0  0  0  0
  -18.0259  -42.8040  -22.1652 O   0  0  0  0  0  0  0  0  0  0  0  0
  -17.2745  -41.6284  -22.4511 C   0  0  0  0  0  0  0  0  0  0  0  0
  -15.7888  -42.0320  -22.4690 C   0  0  0  0  0  0  0  0  0  0  0  0
  -14.9673  -40.9349  -23.0253 C   0  0  0  0  0  0  0  0  0  0  0  0
  -14.0697  -40.0660  -22.3666 C   0  0  0  0  0  0  0  0  0  0  0  0
  -13.5897  -39.1190  -23.1793 N   0  0  0  0  0  0  0  0  0  0  0  0
  -14.1650  -39.4064  -24.3664 N   0  0  0  0  0  0  0  0  0  0  0  0
  -14.9690  -40.4993  -24.3304 C   0  0  0  0  0  0  0  0  0  0  0  0
  -18.8023  -44.1154  -20.4432 C   0  0  0  0  0  0  0  0  0  0  0  0
  -19.3609  -44.4293  -19.2158 C   0  0  0  0  0  0  0  0  0  0  0  0
  -18.8674  -46.0077  -18.7516 S   0  0  0  0  0  0  0  0  0  0  0  0
  -18.0515  -46.1645  -20.2315 C   0  0  0  0  0  0  0  0  0  0  0  0
  -17.0566  -47.5046  -20.5950 Cl  0  0  0  0  0  0  0  0  0  0  0  0
  -18.1166  -45.1564  -21.0539 N   0  0  0  0  0  0  0  0  0  0  0  0
  1  2  2  0
  2  3  1  0
  3  4  1  0
  4  5  1  0
  5  6  1  0
  6  7  1  0
  7  8  2  0
  8  9  1  0
  9 10  1  0
  2 11  1  0
 11 12  2  0
 12 13  1  0
 13 14  1  0
 14 15  1  0
 14 16  2  0
 10  6  2  0
 16 11  1  0
M  END
>  <fragmenstein_mode>  (15) 
expansion

>  <original SMILES>  (15) 
O=C(OCCc1cn[nH]c1)c1csc(Cl)n1

>  <fragmenstein_outcome>  (15) 
acceptable

>  <energy_score>  (15) 
-106.919325

>  <tags>  (15) 
['Fragmenstein placed']

>  <original ID>  (15) 
ZTVDQGWDBXWGGO-UHFFFAOYSA-N

>  <alias>  (15) 
None

>  <ref_mols>  (15) 
d0160a,d0264a

>  <HIPPO Pose ID>  (15) 
57313

>  <ref_pdb>  (15) 
d0160a

>  <scratch_subdir>  (15) 
/opt/xchem-fragalysis-2/maxwin/BulkDock/SCRATCH/217045/C16016-P12

>  <HIPPO Compound ID>  (15) 
16016

>  <exports>  (15) 
['/opt/xchem-fragalysis-2/maxwin/BulkDock/OUTPUTS/RdRp_knitwork_primer_grip_n_pocket_pure_split1800_batch011_217045.sdf']

>  <fragmenstein_runtime>  (15) 
2.318679

>  <fragmenstein_error>  (15) 
None

>  <distance_score>  (15) 
0.91711

>  <csv_name>  (15) 
RdRp_knitwork_primer_grip_n_pocket_pure_split1800_batch011.csv

>  <inchikey>  (15) 
ZTVDQGWDBXWGGO-UHFFFAOYSA-N

>  <SLURM_JOB_NAME>  (15) 
BulkDock.place:Flavi_NS5_RdRp:RdRp_knitwork_primer_grip_n_pocket_pure_split1800_batch011

>  <SLURM_JOB_ID>  (15) 
217045

>  <name>  (15) 
ZTVDQGWDBXWGGO-UHFFFAOYSA-N

$$$$
57590
     RDKit          3D

 20 21  0  0  0  0  0  0  0  0999 V2000
  -19.8511  -37.4162  -26.0807 C   0  0  0  0  0  0  0  0  0  0  0  0
  -18.5016  -38.0131  -26.0121 C   0  0  0  0  0  0  0  0  0  0  0  0
  -17.7240  -37.9376  -24.8627 C   0  0  0  0  0  0  0  0  0  0  0  0
  -16.5309  -38.6444  -24.8361 C   0  0  0  0  0  0  0  0  0  0  0  0
  -16.1590  -39.3950  -25.9518 C   0  0  0  0  0  0  0  0  0  0  0  0
  -14.9478  -40.2818  -25.9524 C   0  0  0  0  0  0  0  0  0  0  0  0
  -15.0504  -41.4399  -24.9563 C   0  0  0  0  0  0  0  0  0  0  0  0
  -16.1485  -42.2975  -25.3228 O   0  0  0  0  0  0  0  0  0  0  0  0
  -16.5587  -43.3494  -24.5827 C   0  0  0  0  0  0  0  0  0  0  0  0
  -17.6149  -43.9173  -24.8603 O   0  0  0  0  0  0  0  0  0  0  0  0
  -15.6941  -43.8084  -23.4265 C   0  0  0  0  0  0  0  0  0  0  0  0
  -16.5374  -43.9184  -22.1436 C   0  0  2  0  0  0  0  0  0  0  0  0
  -15.8802  -43.1504  -20.9897 C   0  0  0  0  0  0  0  0  0  0  0  0
  -16.8372  -45.3158  -21.8189 N   0  0  0  0  0  0  0  0  0  0  0  0
  -16.2561  -46.0986  -20.8560 C   0  0  0  0  0  0  0  0  0  0  0  0
  -16.8795  -47.3254  -20.8703 C   0  0  0  0  0  0  0  0  0  0  0  0
  -17.8338  -47.3044  -21.9068 C   0  0  0  0  0  0  0  0  0  0  0  0
  -17.8069  -46.0465  -22.4578 C   0  0  0  0  0  0  0  0  0  0  0  0
  -16.9674  -39.3259  -27.0810 C   0  0  0  0  0  0  0  0  0  0  0  0
  -18.1244  -38.6399  -27.1374 N   0  0  0  0  0  0  0  0  0  0  0  0
  1  2  1  0
  2  3  2  0
  3  4  1  0
  4  5  2  0
  5  6  1  0
  6  7  1  0
  7  8  1  0
  8  9  1  0
  9 10  2  0
  9 11  1  0
 11 12  1  0
 12 13  1  1
 12 14  1  0
 14 15  1  0
 15 16  2  0
 16 17  1  0
 17 18  2  0
  5 19  1  0
 19 20  2  0
 20  2  1  0
 18 14  1  0
M  END
>  <fragmenstein_mode>  (16) 
expansion

>  <original SMILES>  (16) 
Cc1ccc(CCOC(=O)C[C@H](C)n2cccc2)cn1

>  <fragmenstein_outcome>  (16) 
acceptable

>  <energy_score>  (16) 
-11.943941

>  <tags>  (16) 
['Fragmenstein placed']

>  <original ID>  (16) 
MUUGEFZIDFSSOV-AWEZNQCLSA-N

>  <alias>  (16) 
None

>  <ref_mols>  (16) 
d0191a,d0472a

>  <HIPPO Pose ID>  (16) 
57590

>  <ref_pdb>  (16) 
d0191a

>  <scratch_subdir>  (16) 
/opt/xchem-fragalysis-2/maxwin/BulkDock/SCRATCH/217049/C11312-P19

>  <HIPPO Compound ID>  (16) 
11312

>  <exports>  (16) 
['/opt/xchem-fragalysis-2/maxwin/BulkDock/OUTPUTS/RdRp_knitwork_primer_grip_n_pocket_pure_split1800_batch015_217049.sdf']

>  <fragmenstein_runtime>  (16) 
4.496207

>  <fragmenstein_error>  (16) 
None

>  <distance_score>  (16) 
0.906229

>  <csv_name>  (16) 
RdRp_knitwork_primer_grip_n_pocket_pure_split1800_batch015.csv

>  <inchikey>  (16) 
MUUGEFZIDFSSOV-AWEZNQCLSA-N

>  <SLURM_JOB_NAME>  (16) 
BulkDock.place:Flavi_NS5_RdRp:RdRp_knitwork_primer_grip_n_pocket_pure_split1800_batch015

>  <SLURM_JOB_ID>  (16) 
217049

>  <name>  (16) 
MUUGEFZIDFSSOV-AWEZNQCLSA-N

$$$$
57868
     RDKit          3D

 15 15  0  0  0  0  0  0  0  0999 V2000
  -22.7721  -46.7569  -15.0495 C   0  0  0  0  0  0  0  0  0  0  0  0
  -22.0317  -47.3081  -16.2685 C   0  0  0  0  0  0  0  0  0  0  0  0
  -22.7972  -48.4846  -16.8569 C   0  0  0  0  0  0  0  0  0  0  0  0
  -21.8852  -46.1685  -17.2850 C   0  0  0  0  0  0  0  0  0  0  0  0
  -22.7061  -45.9177  -18.0743 O   0  0  0  0  0  0  0  0  0  0  0  0
  -20.5554  -45.4427  -16.9530 N   0  0  0  0  0  0  0  0  0  0  0  0
  -19.9160  -44.3077  -17.5934 C   0  0  2  0  0  0  0  0  0  0  0  0
  -20.7122  -43.0389  -17.2745 C   0  0  0  0  0  0  0  0  0  0  0  0
  -19.6418  -44.4749  -19.0853 C   0  0  0  0  0  0  0  0  0  0  0  0
  -19.0023  -45.6143  -19.5817 C   0  0  0  0  0  0  0  0  0  0  0  0
  -18.6442  -45.6661  -20.9365 C   0  0  0  0  0  0  0  0  0  0  0  0
  -18.9442  -44.5891  -21.7600 C   0  0  0  0  0  0  0  0  0  0  0  0
  -18.6349  -44.5882  -23.0703 F   0  0  0  0  0  0  0  0  0  0  0  0
  -19.5850  -43.5054  -21.1972 C   0  0  0  0  0  0  0  0  0  0  0  0
  -19.9186  -43.4152  -19.8919 N   0  0  0  0  0  0  0  0  0  0  0  0
  1  2  1  0
  2  3  1  0
  2  4  1  0
  4  5  2  0
  4  6  1  0
  6  7  1  0
  7  8  1  6
  7  9  1  0
  9 10  2  0
 10 11  1  0
 11 12  2  0
 12 13  1  0
 12 14  1  0
 14 15  2  0
 15  9  1  0
M  END
>  <fragmenstein_mode>  (17) 
expansion

>  <original SMILES>  (17) 
CC(C)C(=O)N[C@H](C)c1ccc(F)cn1

>  <fragmenstein_outcome>  (17) 
acceptable

>  <energy_score>  (17) 
-12.205516

>  <tags>  (17) 
['Fragmenstein placed']

>  <original ID>  (17) 
JQSBPXUZUDUFTP-MRVPVSSYSA-N

>  <alias>  (17) 
None

>  <ref_mols>  (17) 
d0264a,d0615b

>  <HIPPO Pose ID>  (17) 
57868

>  <ref_pdb>  (17) 
d0264a

>  <scratch_subdir>  (17) 
/opt/xchem-fragalysis-2/maxwin/BulkDock/SCRATCH/217040/C15416-P28

>  <HIPPO Compound ID>  (17) 
15416

>  <exports>  (17) 
['/opt/xchem-fragalysis-2/maxwin/BulkDock/OUTPUTS/RdRp_knitwork_primer_grip_n_pocket_pure_split1800_batch006_217040.sdf']

>  <fragmenstein_runtime>  (17) 
4.213002

>  <fragmenstein_error>  (17) 
None

>  <distance_score>  (17) 
0.845042

>  <csv_name>  (17) 
RdRp_knitwork_primer_grip_n_pocket_pure_split1800_batch006.csv

>  <inchikey>  (17) 
JQSBPXUZUDUFTP-MRVPVSSYSA-N

>  <SLURM_JOB_NAME>  (17) 
BulkDock.place:Flavi_NS5_RdRp:RdRp_knitwork_primer_grip_n_pocket_pure_split1800_batch006

>  <SLURM_JOB_ID>  (17) 
217040

>  <name>  (17) 
JQSBPXUZUDUFTP-MRVPVSSYSA-N

$$$$
58135
     RDKit          3D

 22 23  0  0  0  0  0  0  0  0999 V2000
  -14.2525  -43.2401  -23.5616 C   0  0  0  0  0  0  0  0  0  0  0  0
  -15.7127  -43.6519  -23.4446 C   0  0  1  0  0  0  0  0  0  0  0  0
  -16.1630  -44.2593  -22.2473 O   0  0  0  0  0  0  0  0  0  0  0  0
  -15.5080  -44.1101  -21.0733 C   0  0  0  0  0  0  0  0  0  0  0  0
  -14.8852  -42.9584  -20.6188 C   0  0  0  0  0  0  0  0  0  0  0  0
  -14.2301  -42.9777  -19.3909 C   0  0  0  0  0  0  0  0  0  0  0  0
  -14.2714  -44.1397  -18.6380 C   0  0  0  0  0  0  0  0  0  0  0  0
  -14.9030  -45.2692  -19.0228 N   0  0  0  0  0  0  0  0  0  0  0  0
  -15.5195  -45.2133  -20.2269 C   0  0  0  0  0  0  0  0  0  0  0  0
  -16.6010  -42.4775  -23.9092 C   0  0  0  0  0  0  0  0  0  0  0  0
  -17.1738  -41.7597  -23.1882 O   0  0  0  0  0  0  0  0  0  0  0  0
  -16.4625  -42.4495  -25.4581 N   0  0  0  0  0  0  0  0  0  0  0  0
  -16.9176  -41.4880  -26.4132 C   0  0  0  0  0  0  0  0  0  0  0  0
  -16.1194  -40.1685  -26.4321 C   0  0  2  0  0  0  0  0  0  0  0  0
  -14.7470  -40.2346  -25.7779 C   0  0  0  0  0  0  0  0  0  0  0  0
  -13.8748  -39.3786  -26.4881 O   0  0  0  0  0  0  0  0  0  0  0  0
  -16.9801  -39.0195  -25.9560 C   0  0  0  0  0  0  0  0  0  0  0  0
  -16.9624  -38.4615  -24.6789 C   0  0  0  0  0  0  0  0  0  0  0  0
  -17.8343  -37.4205  -24.3708 C   0  0  0  0  0  0  0  0  0  0  0  0
  -18.7218  -36.9902  -25.3430 C   0  0  0  0  0  0  0  0  0  0  0  0
  -18.7903  -37.5148  -26.5862 N   0  0  0  0  0  0  0  0  0  0  0  0
  -17.9082  -38.5036  -26.8520 C   0  0  0  0  0  0  0  0  0  0  0  0
  2  1  1  1
  2  3  1  0
  3  4  1  0
  4  5  2  0
  5  6  1  0
  6  7  2  0
  7  8  1  0
  8  9  2  0
  2 10  1  0
 10 11  2  0
 10 12  1  0
 12 13  1  0
 14 13  1  1
 14 15  1  0
 15 16  1  0
 14 17  1  0
 17 18  2  0
 18 19  1  0
 19 20  2  0
 20 21  1  0
 21 22  2  0
  9  4  1  0
 22 17  1  0
M  END
>  <fragmenstein_mode>  (18) 
expansion

>  <original SMILES>  (18) 
C[C@@H](Oc1cccnc1)C(=O)NC[C@H](CO)c1cccnc1

>  <fragmenstein_outcome>  (18) 
acceptable

>  <energy_score>  (18) 
-8.154132

>  <tags>  (18) 
['Fragmenstein placed']

>  <original ID>  (18) 
NBXAYGBEQBZCQN-TZMCWYRMSA-N

>  <alias>  (18) 
None

>  <ref_mols>  (18) 
d0191a,d0472a

>  <HIPPO Pose ID>  (18) 
58135

>  <ref_pdb>  (18) 
d0472a

>  <scratch_subdir>  (18) 
/opt/xchem-fragalysis-2/maxwin/BulkDock/SCRATCH/217049/C13623-P42

>  <HIPPO Compound ID>  (18) 
13623

>  <exports>  (18) 
['/opt/xchem-fragalysis-2/maxwin/BulkDock/OUTPUTS/RdRp_knitwork_primer_grip_n_pocket_pure_split1800_batch015_217049.sdf']

>  <fragmenstein_runtime>  (18) 
4.731473

>  <fragmenstein_error>  (18) 
None

>  <distance_score>  (18) 
0.922802

>  <csv_name>  (18) 
RdRp_knitwork_primer_grip_n_pocket_pure_split1800_batch015.csv

>  <inchikey>  (18) 
NBXAYGBEQBZCQN-TZMCWYRMSA-N

>  <SLURM_JOB_NAME>  (18) 
BulkDock.place:Flavi_NS5_RdRp:RdRp_knitwork_primer_grip_n_pocket_pure_split1800_batch015

>  <SLURM_JOB_ID>  (18) 
217049

>  <name>  (18) 
NBXAYGBEQBZCQN-TZMCWYRMSA-N

$$$$
58420
     RDKit          3D

 21 22  0  0  0  0  0  0  0  0999 V2000
  -12.3235  -40.8887  -18.5152 C   0  0  0  0  0  0  0  0  0  0  0  0
  -12.4871  -40.4756  -19.9760 C   0  0  0  0  0  0  0  0  0  0  0  0
  -13.8552  -40.9074  -20.5610 C   0  0  2  0  0  0  0  0  0  0  0  0
  -13.9047  -42.4605  -20.7006 C   0  0  0  0  0  0  0  0  0  0  0  0
  -15.1182  -42.9946  -21.2937 N   0  0  0  0  0  0  0  0  0  0  0  0
  -16.6112  -42.6294  -21.0432 C   0  0  0  0  0  0  0  0  0  0  0  0
  -17.0846  -41.7914  -20.3794 O   0  0  0  0  0  0  0  0  0  0  0  0
  -17.4831  -43.6181  -21.8351 C   0  0  0  0  0  0  0  0  0  0  0  0
  -18.3939  -44.3390  -20.9585 N   0  0  0  0  0  0  0  0  0  0  0  0
  -19.5273  -43.8070  -20.4001 C   0  0  0  0  0  0  0  0  0  0  0  0
  -19.9991  -44.7746  -19.5503 C   0  0  0  0  0  0  0  0  0  0  0  0
  -19.2167  -45.8940  -19.6197 N   0  0  0  0  0  0  0  0  0  0  0  0
  -18.2812  -45.6355  -20.5109 C   0  0  0  0  0  0  0  0  0  0  0  0
  -17.2606  -46.6045  -20.9767 C   0  0  0  0  0  0  0  0  0  0  0  0
  -14.3168  -40.2526  -21.8153 N   0  0  0  0  0  0  0  0  0  0  0  0
  -13.3130  -39.4949  -22.5430 C   0  0  0  0  0  0  0  0  0  0  0  0
  -13.1098  -38.0808  -22.1158 C   0  0  0  0  0  0  0  0  0  0  0  0
  -13.9879  -37.2233  -21.4826 C   0  0  0  0  0  0  0  0  0  0  0  0
  -13.2162  -35.7284  -21.1525 S   0  0  0  0  0  0  0  0  0  0  0  0
  -11.8013  -36.3021  -21.9222 C   0  0  0  0  0  0  0  0  0  0  0  0
  -11.8710  -37.5180  -22.4174 N   0  0  0  0  0  0  0  0  0  0  0  0
  1  2  1  0
  3  2  1  6
  3  4  1  0
  4  5  1  0
  5  6  1  0
  6  7  2  0
  6  8  1  0
  8  9  1  0
  9 10  1  0
 10 11  2  0
 11 12  1  0
 12 13  2  0
 13 14  1  0
  3 15  1  0
 15 16  1  0
 16 17  1  0
 17 18  2  0
 18 19  1  0
 19 20  1  0
 20 21  2  0
 13  9  1  0
 21 17  1  0
M  END
>  <fragmenstein_mode>  (19) 
expansion

>  <original SMILES>  (19) 
CC[C@H](CNC(=O)Cn1ccnc1C)NCc1cscn1

>  <fragmenstein_outcome>  (19) 
acceptable

>  <energy_score>  (19) 
-70.75555

>  <tags>  (19) 
['Fragmenstein placed']

>  <original ID>  (19) 
YSHCMKRBIPDOGP-GFCCVEGCSA-N

>  <alias>  (19) 
None

>  <ref_mols>  (19) 
d0264a,z0103a

>  <HIPPO Pose ID>  (19) 
58420

>  <ref_pdb>  (19) 
d0264a

>  <scratch_subdir>  (19) 
/opt/xchem-fragalysis-2/maxwin/BulkDock/SCRATCH/217041/C24257-P28

>  <HIPPO Compound ID>  (19) 
24257

>  <exports>  (19) 
['/opt/xchem-fragalysis-2/maxwin/BulkDock/OUTPUTS/RdRp_knitwork_primer_grip_n_pocket_pure_split1800_batch007_217041.sdf']

>  <fragmenstein_runtime>  (19) 
5.519706

>  <fragmenstein_error>  (19) 
None

>  <distance_score>  (19) 
0.92444

>  <csv_name>  (19) 
RdRp_knitwork_primer_grip_n_pocket_pure_split1800_batch007.csv

>  <inchikey>  (19) 
YSHCMKRBIPDOGP-GFCCVEGCSA-N

>  <SLURM_JOB_NAME>  (19) 
BulkDock.place:Flavi_NS5_RdRp:RdRp_knitwork_primer_grip_n_pocket_pure_split1800_batch007

>  <SLURM_JOB_ID>  (19) 
217041

>  <name>  (19) 
YSHCMKRBIPDOGP-GFCCVEGCSA-N

$$$$
58523
     RDKit          3D

 21 22  0  0  0  0  0  0  0  0999 V2000
  -17.6247  -43.3875  -24.6260 C   0  0  0  0  0  0  0  0  0  0  0  0
  -16.8060  -42.4620  -25.4977 C   0  0  0  0  0  0  0  0  0  0  0  0
  -16.0830  -41.3973  -24.7348 N   0  0  0  0  0  0  0  0  0  0  0  0
  -15.6862  -40.2047  -25.5636 C   0  0  1  0  0  0  0  0  0  0  0  0
  -15.1172  -40.5751  -26.9197 C   0  0  0  0  0  0  0  0  0  0  0  0
  -16.8084  -39.1949  -25.6530 C   0  0  0  0  0  0  0  0  0  0  0  0
  -16.9276  -38.2216  -24.6593 C   0  0  0  0  0  0  0  0  0  0  0  0
  -17.8694  -37.2184  -24.8007 C   0  0  0  0  0  0  0  0  0  0  0  0
  -18.6856  -37.2424  -25.9171 C   0  0  0  0  0  0  0  0  0  0  0  0
  -18.6583  -38.1918  -26.8695 N   0  0  0  0  0  0  0  0  0  0  0  0
  -17.7063  -39.1384  -26.7180 C   0  0  0  0  0  0  0  0  0  0  0  0
  -14.9144  -41.9382  -23.6124 S   0  0  0  0  0  0  0  0  0  0  0  0
  -14.4826  -43.2411  -24.0624 O   0  0  0  0  0  0  0  0  0  0  0  0
  -13.9859  -40.8588  -23.3440 O   0  0  0  0  0  0  0  0  0  0  0  0
  -15.8946  -42.1145  -22.1178 C   0  0  0  0  0  0  0  0  0  0  0  0
  -15.2503  -43.0841  -21.1669 C   0  0  0  0  0  0  0  0  0  0  0  0
  -14.0405  -42.7949  -20.5316 C   0  0  0  0  0  0  0  0  0  0  0  0
  -13.5319  -43.6756  -19.5857 C   0  0  0  0  0  0  0  0  0  0  0  0
  -14.2626  -44.8139  -19.2976 C   0  0  0  0  0  0  0  0  0  0  0  0
  -15.4182  -45.1527  -19.9049 N   0  0  0  0  0  0  0  0  0  0  0  0
  -15.8754  -44.2853  -20.8344 C   0  0  0  0  0  0  0  0  0  0  0  0
  1  2  1  0
  2  3  1  0
  3  4  1  0
  4  5  1  6
  4  6  1  0
  6  7  2  0
  7  8  1  0
  8  9  2  0
  9 10  1  0
 10 11  2  0
  3 12  1  0
 12 13  2  0
 12 14  2  0
 12 15  1  0
 15 16  1  0
 16 17  2  0
 17 18  1  0
 18 19  2  0
 19 20  1  0
 20 21  2  0
 11  6  1  0
 21 16  1  0
M  END
>  <fragmenstein_mode>  (20) 
expansion

>  <original SMILES>  (20) 
CCN([C@@H](C)c1cccnc1)S(=O)(=O)Cc1cccnc1

>  <fragmenstein_outcome>  (20) 
acceptable

>  <energy_score>  (20) 
-43.231364

>  <tags>  (20) 
['Fragmenstein placed']

>  <original ID>  (20) 
WWDASINWQNVIKX-ZDUSSCGKSA-N

>  <alias>  (20) 
None

>  <ref_mols>  (20) 
d0191a,d0472a

>  <HIPPO Pose ID>  (20) 
58523

>  <ref_pdb>  (20) 
d0191a

>  <scratch_subdir>  (20) 
/opt/xchem-fragalysis-2/maxwin/BulkDock/SCRATCH/217049/C10370-P19

>  <HIPPO Compound ID>  (20) 
10370

>  <exports>  (20) 
['/opt/xchem-fragalysis-2/maxwin/BulkDock/OUTPUTS/RdRp_knitwork_primer_grip_n_pocket_pure_split1800_batch015_217049.sdf']

>  <fragmenstein_runtime>  (20) 
15.497325

>  <fragmenstein_error>  (20) 
None

>  <distance_score>  (20) 
0.850219

>  <csv_name>  (20) 
RdRp_knitwork_primer_grip_n_pocket_pure_split1800_batch015.csv

>  <inchikey>  (20) 
WWDASINWQNVIKX-ZDUSSCGKSA-N

>  <SLURM_JOB_NAME>  (20) 
BulkDock.place:Flavi_NS5_RdRp:RdRp_knitwork_primer_grip_n_pocket_pure_split1800_batch015

>  <SLURM_JOB_ID>  (20) 
217049

>  <name>  (20) 
WWDASINWQNVIKX-ZDUSSCGKSA-N

$$$$
58537
     RDKit          3D

 21 22  0  0  0  0  0  0  0  0999 V2000
  -17.5387  -43.0562  -25.0590 C   0  0  0  0  0  0  0  0  0  0  0  0
  -16.6272  -42.0388  -25.7089 C   0  0  0  0  0  0  0  0  0  0  0  0
  -16.0250  -41.1157  -24.7093 N   0  0  0  0  0  0  0  0  0  0  0  0
  -15.6243  -39.7723  -25.2429 C   0  0  1  0  0  0  0  0  0  0  0  0
  -14.7738  -39.8915  -26.4866 C   0  0  0  0  0  0  0  0  0  0  0  0
  -16.8094  -38.8371  -25.3771 C   0  0  0  0  0  0  0  0  0  0  0  0
  -17.2042  -38.0894  -24.2616 C   0  0  0  0  0  0  0  0  0  0  0  0
  -18.2849  -37.2223  -24.3485 C   0  0  0  0  0  0  0  0  0  0  0  0
  -18.9666  -37.1457  -25.5490 C   0  0  0  0  0  0  0  0  0  0  0  0
  -18.6333  -37.8468  -26.6564 N   0  0  0  0  0  0  0  0  0  0  0  0
  -17.5489  -38.6607  -26.5449 C   0  0  0  0  0  0  0  0  0  0  0  0
  -14.9544  -41.8178  -23.5722 S   0  0  0  0  0  0  0  0  0  0  0  0
  -14.4917  -43.0619  -24.1416 O   0  0  0  0  0  0  0  0  0  0  0  0
  -14.0489  -40.7892  -23.0994 O   0  0  0  0  0  0  0  0  0  0  0  0
  -16.0550  -42.1782  -22.2039 C   0  0  0  0  0  0  0  0  0  0  0  0
  -15.4030  -43.1039  -21.2123 C   0  0  0  0  0  0  0  0  0  0  0  0
  -14.2984  -42.7129  -20.4511 C   0  0  0  0  0  0  0  0  0  0  0  0
  -13.8215  -43.5464  -19.4473 C   0  0  0  0  0  0  0  0  0  0  0  0
  -14.4806  -44.7422  -19.2283 C   0  0  0  0  0  0  0  0  0  0  0  0
  -15.5168  -45.1868  -19.9682 N   0  0  0  0  0  0  0  0  0  0  0  0
  -15.9445  -44.3617  -20.9494 C   0  0  0  0  0  0  0  0  0  0  0  0
  1  2  1  0
  2  3  1  0
  3  4  1  0
  4  5  1  6
  4  6  1  0
  6  7  2  0
  7  8  1  0
  8  9  2  0
  9 10  1  0
 10 11  2  0
  3 12  1  0
 12 13  2  0
 12 14  2  0
 12 15  1  0
 15 16  1  0
 16 17  2  0
 17 18  1  0
 18 19  2  0
 19 20  1  0
 20 21  2  0
 11  6  1  0
 21 16  1  0
M  END
>  <fragmenstein_mode>  (21) 
expansion

>  <original SMILES>  (21) 
CCN([C@@H](C)c1cccnc1)S(=O)(=O)Cc1cccnc1

>  <fragmenstein_outcome>  (21) 
acceptable

>  <energy_score>  (21) 
-51.07349

>  <tags>  (21) 
['Fragmenstein placed']

>  <original ID>  (21) 
WWDASINWQNVIKX-ZDUSSCGKSA-N

>  <alias>  (21) 
None

>  <ref_mols>  (21) 
d0191a,d0472a

>  <HIPPO Pose ID>  (21) 
58537

>  <ref_pdb>  (21) 
d0472a

>  <scratch_subdir>  (21) 
/opt/xchem-fragalysis-2/maxwin/BulkDock/SCRATCH/217049/C10370-P42

>  <HIPPO Compound ID>  (21) 
10370

>  <exports>  (21) 
['/opt/xchem-fragalysis-2/maxwin/BulkDock/OUTPUTS/RdRp_knitwork_primer_grip_n_pocket_pure_split1800_batch015_217049.sdf']

>  <fragmenstein_runtime>  (21) 
14.758294

>  <fragmenstein_error>  (21) 
None

>  <distance_score>  (21) 
0.894504

>  <csv_name>  (21) 
RdRp_knitwork_primer_grip_n_pocket_pure_split1800_batch015.csv

>  <inchikey>  (21) 
WWDASINWQNVIKX-ZDUSSCGKSA-N

>  <SLURM_JOB_NAME>  (21) 
BulkDock.place:Flavi_NS5_RdRp:RdRp_knitwork_primer_grip_n_pocket_pure_split1800_batch015

>  <SLURM_JOB_ID>  (21) 
217049

>  <name>  (21) 
WWDASINWQNVIKX-ZDUSSCGKSA-N

$$$$
59460
     RDKit          3D

 15 16  0  0  0  0  0  0  0  0999 V2000
  -18.9165  -44.3306  -21.5266 C   0  0  0  0  0  0  0  0  0  0  0  0
  -18.6235  -43.3652  -22.5334 O   0  0  0  0  0  0  0  0  0  0  0  0
  -17.2845  -43.2991  -22.8318 C   0  0  0  0  0  0  0  0  0  0  0  0
  -16.8656  -42.3561  -23.7720 C   0  0  0  0  0  0  0  0  0  0  0  0
  -15.5092  -42.2255  -24.0320 C   0  0  0  0  0  0  0  0  0  0  0  0
  -14.9321  -41.2036  -24.7861 N   0  0  0  0  0  0  0  0  0  0  0  0
  -15.5881  -40.6204  -25.9517 C   0  0  0  0  0  0  0  0  0  0  0  0
  -16.4793  -39.4289  -25.7863 C   0  0  0  0  0  0  0  0  0  0  0  0
  -17.2324  -38.8279  -26.7769 C   0  0  0  0  0  0  0  0  0  0  0  0
  -18.0604  -37.7919  -26.3919 N   0  0  0  0  0  0  0  0  0  0  0  0
  -17.8255  -37.5370  -25.1199 C   0  0  0  0  0  0  0  0  0  0  0  0
  -16.6886  -38.5551  -24.3311 S   0  0  0  0  0  0  0  0  0  0  0  0
  -14.6723  -43.1042  -23.3477 C   0  0  0  0  0  0  0  0  0  0  0  0
  -15.1650  -43.9815  -22.4065 C   0  0  0  0  0  0  0  0  0  0  0  0
  -16.4608  -44.0950  -22.1304 N   0  0  0  0  0  0  0  0  0  0  0  0
  1  2  1  0
  2  3  1  0
  3  4  2  0
  4  5  1  0
  5  6  1  0
  6  7  1  0
  7  8  1  0
  8  9  2  0
  9 10  1  0
 10 11  2  0
 11 12  1  0
  5 13  2  0
 13 14  1  0
 14 15  2  0
 15  3  1  0
 12  8  1  0
M  END
>  <fragmenstein_mode>  (22) 
expansion

>  <original SMILES>  (22) 
COc1cc(NCc2cncs2)ccn1

>  <fragmenstein_outcome>  (22) 
acceptable

>  <energy_score>  (22) 
-89.532631

>  <tags>  (22) 
['Fragmenstein placed']

>  <original ID>  (22) 
FWJSOTKQDQLPTA-UHFFFAOYSA-N

>  <alias>  (22) 
None

>  <ref_mols>  (22) 
d0264a,d0615b

>  <HIPPO Pose ID>  (22) 
59460

>  <ref_pdb>  (22) 
d0615b

>  <scratch_subdir>  (22) 
/opt/xchem-fragalysis-2/maxwin/BulkDock/SCRATCH/217040/C17993-P51

>  <HIPPO Compound ID>  (22) 
17993

>  <exports>  (22) 
['/opt/xchem-fragalysis-2/maxwin/BulkDock/OUTPUTS/RdRp_knitwork_primer_grip_n_pocket_pure_split1800_batch006_217040.sdf']

>  <fragmenstein_runtime>  (22) 
5.171372

>  <fragmenstein_error>  (22) 
None

>  <distance_score>  (22) 
0.99168

>  <csv_name>  (22) 
RdRp_knitwork_primer_grip_n_pocket_pure_split1800_batch006.csv

>  <inchikey>  (22) 
FWJSOTKQDQLPTA-UHFFFAOYSA-N

>  <SLURM_JOB_NAME>  (22) 
BulkDock.place:Flavi_NS5_RdRp:RdRp_knitwork_primer_grip_n_pocket_pure_split1800_batch006

>  <SLURM_JOB_ID>  (22) 
217040

>  <name>  (22) 
FWJSOTKQDQLPTA-UHFFFAOYSA-N

$$$$
59495
     RDKit          3D

 15 16  0  0  0  0  0  0  0  0999 V2000
  -12.2751  -40.7286  -18.2839 C   0  0  0  0  0  0  0  0  0  0  0  0
  -11.7733  -41.3203  -19.5895 C   0  0  0  0  0  0  0  0  0  0  0  0
  -12.5754  -40.9236  -20.7233 N   0  0  0  0  0  0  0  0  0  0  0  0
  -12.5252  -39.7183  -21.3567 C   0  0  0  0  0  0  0  0  0  0  0  0
  -13.4223  -39.6460  -22.3147 N   0  0  0  0  0  0  0  0  0  0  0  0
  -14.0610  -40.8744  -22.3282 C   0  0  0  0  0  0  0  0  0  0  0  0
  -15.1588  -41.2400  -23.3105 C   0  0  1  0  0  0  0  0  0  0  0  0
  -16.3808  -41.5460  -22.6081 O   0  0  0  0  0  0  0  0  0  0  0  0
  -15.4085  -40.1750  -24.4319 C   0  0  2  0  0  0  0  0  0  0  0  0
  -16.5933  -39.2334  -24.1296 C   0  0  0  0  0  0  0  0  0  0  0  0
  -16.7710  -38.1893  -25.2307 C   0  0  0  0  0  0  0  0  0  0  0  0
  -16.8390  -38.8399  -26.6083 C   0  0  0  0  0  0  0  0  0  0  0  0
  -15.6854  -39.8183  -26.8087 C   0  0  0  0  0  0  0  0  0  0  0  0
  -15.6414  -40.8216  -25.7444 N   0  0  0  0  0  0  0  0  0  0  0  0
  -13.5283  -41.6799  -21.3376 C   0  0  0  0  0  0  0  0  0  0  0  0
  1  2  1  0
  2  3  1  0
  3  4  1  0
  4  5  2  0
  5  6  1  0
  6  7  1  0
  7  8  1  1
  7  9  1  0
  9 10  1  1
 10 11  1  0
 11 12  1  0
 12 13  1  0
 13 14  1  0
  6 15  2  0
 15  3  1  0
 14  9  1  0
M  END
>  <fragmenstein_mode>  (23) 
expansion

>  <original SMILES>  (23) 
CCn1cnc([C@@H](O)[C@@H]2CCCCN2)c1

>  <fragmenstein_outcome>  (23) 
acceptable

>  <energy_score>  (23) 
-21.100493

>  <tags>  (23) 
['Fragmenstein placed']

>  <original ID>  (23) 
HAAUYBAJHIVYQS-ONGXEEELSA-N

>  <alias>  (23) 
None

>  <ref_mols>  (23) 
d0866a,z0875c

>  <HIPPO Pose ID>  (23) 
59495

>  <ref_pdb>  (23) 
d0866a

>  <scratch_subdir>  (23) 
/opt/xchem-fragalysis-2/maxwin/BulkDock/SCRATCH/217043/C13375-P68

>  <HIPPO Compound ID>  (23) 
13375

>  <exports>  (23) 
['/opt/xchem-fragalysis-2/maxwin/BulkDock/OUTPUTS/RdRp_knitwork_primer_grip_n_pocket_pure_split1800_batch009_217043.sdf']

>  <fragmenstein_runtime>  (23) 
8.494061

>  <fragmenstein_error>  (23) 
None

>  <distance_score>  (23) 
0.973443

>  <csv_name>  (23) 
RdRp_knitwork_primer_grip_n_pocket_pure_split1800_batch009.csv

>  <inchikey>  (23) 
HAAUYBAJHIVYQS-ONGXEEELSA-N

>  <SLURM_JOB_NAME>  (23) 
BulkDock.place:Flavi_NS5_RdRp:RdRp_knitwork_primer_grip_n_pocket_pure_split1800_batch009

>  <SLURM_JOB_ID>  (23) 
217043

>  <name>  (23) 
HAAUYBAJHIVYQS-ONGXEEELSA-N

$$$$
59507
     RDKit          3D

 21 23  0  0  0  0  0  0  0  0999 V2000
  -14.7660  -43.9717  -16.4856 C   0  0  0  0  0  0  0  0  0  0  0  0
  -15.3907  -44.6697  -17.6856 C   0  0  1  0  0  0  0  0  0  0  0  0
  -16.8111  -44.4369  -17.7845 N   0  0  0  0  0  0  0  0  0  0  0  0
  -17.6231  -43.1292  -17.6455 C   0  0  0  0  0  0  0  0  0  0  0  0
  -17.2856  -42.0823  -17.3613 O   0  0  0  0  0  0  0  0  0  0  0  0
  -19.0273  -43.6637  -17.9930 N   0  0  0  0  0  0  0  0  0  0  0  0
  -20.2753  -42.9696  -18.1455 C   0  0  0  0  0  0  0  0  0  0  0  0
  -21.4381  -43.9166  -18.0582 C   0  0  0  0  0  0  0  0  0  0  0  0
  -22.5611  -43.7600  -18.8675 C   0  0  0  0  0  0  0  0  0  0  0  0
  -23.5967  -44.6683  -18.7351 C   0  0  0  0  0  0  0  0  0  0  0  0
  -23.5789  -45.7080  -17.8728 N   0  0  0  0  0  0  0  0  0  0  0  0
  -22.5101  -45.8477  -17.0463 C   0  0  0  0  0  0  0  0  0  0  0  0
  -22.4774  -46.9666  -16.0306 C   0  0  0  0  0  0  0  0  0  0  0  0
  -23.7451  -47.6892  -15.6614 C   0  0  0  0  0  0  0  0  0  0  0  0
  -22.6934  -48.3923  -16.4709 C   0  0  0  0  0  0  0  0  0  0  0  0
  -21.4411  -44.9580  -17.1206 C   0  0  0  0  0  0  0  0  0  0  0  0
  -14.8309  -44.2872  -19.0288 C   0  0  0  0  0  0  0  0  0  0  0  0
  -14.0697  -43.1762  -19.3482 C   0  0  0  0  0  0  0  0  0  0  0  0
  -13.9266  -43.0211  -21.0458 S   0  0  0  0  0  0  0  0  0  0  0  0
  -14.8250  -44.4644  -21.2350 C   0  0  0  0  0  0  0  0  0  0  0  0
  -15.2000  -45.0690  -20.1279 N   0  0  0  0  0  0  0  0  0  0  0  0
  2  1  1  1
  2  3  1  0
  3  4  1  0
  4  5  2  0
  4  6  1  0
  6  7  1  0
  7  8  1  0
  8  9  2  0
  9 10  1  0
 10 11  2  0
 11 12  1  0
 12 13  1  0
 13 14  1  0
 14 15  1  0
 12 16  2  0
  2 17  1  0
 17 18  2  0
 18 19  1  0
 19 20  1  0
 20 21  2  0
 16  8  1  0
 21 17  1  0
 15 13  1  0
M  END
>  <fragmenstein_mode>  (24) 
expansion

>  <original SMILES>  (24) 
C[C@@H](NC(=O)NCc1ccnc(C2CC2)c1)c1cscn1

>  <fragmenstein_outcome>  (24) 
acceptable

>  <energy_score>  (24) 
-52.082751

>  <tags>  (24) 
['Fragmenstein placed']

>  <original ID>  (24) 
QHLJSPYESYKMNH-SNVBAGLBSA-N

>  <alias>  (24) 
None

>  <ref_mols>  (24) 
d0264a,d0472a

>  <HIPPO Pose ID>  (24) 
59507

>  <ref_pdb>  (24) 
d0472a

>  <scratch_subdir>  (24) 
/opt/xchem-fragalysis-2/maxwin/BulkDock/SCRATCH/217048/C15394-P42

>  <HIPPO Compound ID>  (24) 
15394

>  <exports>  (24) 
['/opt/xchem-fragalysis-2/maxwin/BulkDock/OUTPUTS/RdRp_knitwork_primer_grip_n_pocket_pure_split1800_batch014_217048.sdf']

>  <fragmenstein_runtime>  (24) 
4.790911

>  <fragmenstein_error>  (24) 
None

>  <distance_score>  (24) 
0.950364

>  <csv_name>  (24) 
RdRp_knitwork_primer_grip_n_pocket_pure_split1800_batch014.csv

>  <inchikey>  (24) 
QHLJSPYESYKMNH-SNVBAGLBSA-N

>  <SLURM_JOB_NAME>  (24) 
BulkDock.place:Flavi_NS5_RdRp:RdRp_knitwork_primer_grip_n_pocket_pure_split1800_batch014

>  <SLURM_JOB_ID>  (24) 
217048

>  <name>  (24) 
QHLJSPYESYKMNH-SNVBAGLBSA-N

$$$$
59532
     RDKit          3D

 17 19  0  0  0  0  0  0  0  0999 V2000
  -13.4686  -38.6271  -22.0845 C   0  0  0  0  0  0  0  0  0  0  0  0
  -12.9450  -39.8186  -21.4616 N   0  0  0  0  0  0  0  0  0  0  0  0
  -11.8031  -39.8629  -20.7145 C   0  0  0  0  0  0  0  0  0  0  0  0
  -11.5614  -41.0765  -20.2816 N   0  0  0  0  0  0  0  0  0  0  0  0
  -12.5941  -41.8478  -20.7563 C   0  0  0  0  0  0  0  0  0  0  0  0
  -13.4638  -41.0921  -21.5101 C   0  0  0  0  0  0  0  0  0  0  0  0
  -14.5900  -41.4952  -22.2769 C   0  0  0  0  0  0  0  0  0  0  0  0
  -14.9734  -42.7394  -22.4910 N   0  0  0  0  0  0  0  0  0  0  0  0
  -15.8949  -42.6993  -23.5261 N   0  0  0  0  0  0  0  0  0  0  0  0
  -16.0326  -41.4296  -23.8384 C   0  0  0  0  0  0  0  0  0  0  0  0
  -16.6411  -40.7579  -25.0302 C   0  0  1  0  0  0  0  0  0  0  0  0
  -17.7180  -39.7495  -24.5678 C   0  0  0  0  0  0  0  0  0  0  0  0
  -17.8401  -38.5226  -25.4728 C   0  0  0  0  0  0  0  0  0  0  0  0
  -17.4576  -38.8799  -26.8964 C   0  0  0  0  0  0  0  0  0  0  0  0
  -16.0195  -39.3778  -26.9680 C   0  0  0  0  0  0  0  0  0  0  0  0
  -15.5672  -40.0874  -25.7802 N   0  0  0  0  0  0  0  0  0  0  0  0
  -15.3250  -40.6092  -23.0090 O   0  0  0  0  0  0  0  0  0  0  0  0
  1  2  1  0
  2  3  1  0
  3  4  2  0
  4  5  1  0
  5  6  2  0
  6  7  1  0
  7  8  2  0
  8  9  1  0
  9 10  2  0
 11 10  1  1
 11 12  1  0
 12 13  1  0
 13 14  1  0
 14 15  1  0
 15 16  1  0
 10 17  1  0
  6  2  1  0
 17  7  1  0
 16 11  1  0
M  END
>  <fragmenstein_mode>  (25) 
expansion

>  <original SMILES>  (25) 
Cn1cncc1-c1nnc([C@H]2CCCCN2)o1

>  <fragmenstein_outcome>  (25) 
acceptable

>  <energy_score>  (25) 
-30.987692

>  <tags>  (25) 
['Fragmenstein placed']

>  <original ID>  (25) 
NGTMRIIMIQXHAF-MRVPVSSYSA-N

>  <alias>  (25) 
None

>  <ref_mols>  (25) 
d0866a,z0875c

>  <HIPPO Pose ID>  (25) 
59532

>  <ref_pdb>  (25) 
d0866a

>  <scratch_subdir>  (25) 
/opt/xchem-fragalysis-2/maxwin/BulkDock/SCRATCH/217043/C13407-P68

>  <HIPPO Compound ID>  (25) 
13407

>  <exports>  (25) 
['/opt/xchem-fragalysis-2/maxwin/BulkDock/OUTPUTS/RdRp_knitwork_primer_grip_n_pocket_pure_split1800_batch009_217043.sdf']

>  <fragmenstein_runtime>  (25) 
5.680504

>  <fragmenstein_error>  (25) 
None

>  <distance_score>  (25) 
0.950465

>  <csv_name>  (25) 
RdRp_knitwork_primer_grip_n_pocket_pure_split1800_batch009.csv

>  <inchikey>  (25) 
NGTMRIIMIQXHAF-MRVPVSSYSA-N

>  <SLURM_JOB_NAME>  (25) 
BulkDock.place:Flavi_NS5_RdRp:RdRp_knitwork_primer_grip_n_pocket_pure_split1800_batch009

>  <SLURM_JOB_ID>  (25) 
217043

>  <name>  (25) 
NGTMRIIMIQXHAF-MRVPVSSYSA-N

$$$$
59554
     RDKit          3D

 24 25  0  0  0  0  0  0  0  0999 V2000
  -18.3863  -37.8914  -22.4534 C   0  0  0  0  0  0  0  0  0  0  0  0
  -18.7486  -36.5889  -23.0666 C   0  0  0  0  0  0  0  0  0  0  0  0
  -19.0318  -35.4897  -22.3940 N   0  0  0  0  0  0  0  0  0  0  0  0
  -19.3135  -34.5334  -23.3296 C   0  0  0  0  0  0  0  0  0  0  0  0
  -19.2340  -35.0595  -24.5948 C   0  0  0  0  0  0  0  0  0  0  0  0
  -18.8545  -36.3654  -24.4196 N   0  0  0  0  0  0  0  0  0  0  0  0
  -18.7554  -37.3320  -25.4928 C   0  0  0  0  0  0  0  0  0  0  0  0
  -17.4067  -38.0309  -25.6488 C   0  0  0  0  0  0  0  0  0  0  0  0
  -17.3485  -38.7477  -27.0050 C   0  0  0  0  0  0  0  0  0  0  0  0
  -16.1648  -39.6853  -27.1773 C   0  0  0  0  0  0  0  0  0  0  0  0
  -16.2095  -40.7166  -26.1902 N   0  0  0  0  0  0  0  0  0  0  0  0
  -15.4649  -40.8562  -24.8729 C   0  0  0  0  0  0  0  0  0  0  0  0
  -14.6331  -40.1954  -24.4039 O   0  0  0  0  0  0  0  0  0  0  0  0
  -16.0147  -42.0350  -24.0040 C   0  0  0  0  0  0  0  0  0  0  0  0
  -17.0613  -42.5196  -24.1266 O   0  0  0  0  0  0  0  0  0  0  0  0
  -14.9258  -42.2805  -22.9633 N   0  0  0  0  0  0  0  0  0  0  0  0
  -14.9253  -43.1064  -21.7930 C   0  0  0  0  0  0  0  0  0  0  0  0
  -13.5688  -42.9633  -21.0908 C   0  0  0  0  0  0  0  0  0  0  0  0
  -13.1467  -41.5656  -20.5322 C   0  0  2  0  0  0  0  0  0  0  0  0
  -13.5696  -40.3303  -21.3442 C   0  0  0  0  0  0  0  0  0  0  0  0
  -13.0772  -39.0237  -20.7344 C   0  0  0  0  0  0  0  0  0  0  0  0
  -11.5701  -39.0653  -20.5479 C   0  0  0  0  0  0  0  0  0  0  0  0
  -11.1671  -40.3178  -19.7845 C   0  0  0  0  0  0  0  0  0  0  0  0
  -11.6782  -41.5294  -20.4144 N   0  0  0  0  0  0  0  0  0  0  0  0
  1  2  1  0
  2  3  2  0
  3  4  1  0
  4  5  2  0
  5  6  1  0
  6  7  1  0
  7  8  1  0
  8  9  1  0
  9 10  1  0
 10 11  1  0
 11 12  1  0
 12 13  2  0
 12 14  1  0
 14 15  2  0
 14 16  1  0
 16 17  1  0
 17 18  1  0
 19 18  1  6
 19 20  1  0
 20 21  1  0
 21 22  1  0
 22 23  1  0
 23 24  1  0
  6  2  1  0
 24 19  1  0
M  END
>  <fragmenstein_mode>  (26) 
expansion

>  <original SMILES>  (26) 
Cc1nccn1CCCCNC(=O)C(=O)NCC[C@@H]1CCCCN1

>  <fragmenstein_outcome>  (26) 
acceptable

>  <energy_score>  (26) 
-9.936659

>  <tags>  (26) 
['Fragmenstein placed']

>  <original ID>  (26) 
ACIMJNFMSIGUKW-HNNXBMFYSA-N

>  <alias>  (26) 
None

>  <ref_mols>  (26) 
d0866a,z0875c

>  <HIPPO Pose ID>  (26) 
59554

>  <ref_pdb>  (26) 
d0866a

>  <scratch_subdir>  (26) 
/opt/xchem-fragalysis-2/maxwin/BulkDock/SCRATCH/217043/C13484-P68

>  <HIPPO Compound ID>  (26) 
13484

>  <exports>  (26) 
['/opt/xchem-fragalysis-2/maxwin/BulkDock/OUTPUTS/RdRp_knitwork_primer_grip_n_pocket_pure_split1800_batch009_217043.sdf']

>  <fragmenstein_runtime>  (26) 
8.615368

>  <fragmenstein_error>  (26) 
None

>  <distance_score>  (26) 
0.992359

>  <csv_name>  (26) 
RdRp_knitwork_primer_grip_n_pocket_pure_split1800_batch009.csv

>  <inchikey>  (26) 
ACIMJNFMSIGUKW-HNNXBMFYSA-N

>  <SLURM_JOB_NAME>  (26) 
BulkDock.place:Flavi_NS5_RdRp:RdRp_knitwork_primer_grip_n_pocket_pure_split1800_batch009

>  <SLURM_JOB_ID>  (26) 
217043

>  <name>  (26) 
ACIMJNFMSIGUKW-HNNXBMFYSA-N

$$$$
59703
     RDKit          3D

 20 22  0  0  0  0  0  0  0  0999 V2000
  -12.1818  -41.6080  -19.6506 C   0  0  0  0  0  0  0  0  0  0  0  0
  -12.4653  -40.6637  -20.8089 C   0  0  0  0  0  0  0  0  0  0  0  0
  -13.8533  -40.8476  -21.4506 C   0  0  2  0  0  0  0  0  0  0  0  0
  -14.1479  -42.3208  -21.7795 C   0  0  0  0  0  0  0  0  0  0  0  0
  -14.1557  -39.9458  -22.5721 N   0  0  0  0  0  0  0  0  0  0  0  0
  -15.1912  -40.2601  -23.4106 N   0  0  0  0  0  0  0  0  0  0  0  0
  -15.4734  -39.0854  -23.9859 C   0  0  0  0  0  0  0  0  0  0  0  0
  -16.5264  -38.8156  -24.9414 C   0  0  0  0  0  0  0  0  0  0  0  0
  -16.6882  -39.5937  -26.0800 C   0  0  0  0  0  0  0  0  0  0  0  0
  -17.6275  -39.1847  -27.0123 C   0  0  0  0  0  0  0  0  0  0  0  0
  -18.4243  -38.0954  -26.8782 N   0  0  0  0  0  0  0  0  0  0  0  0
  -18.2299  -37.3620  -25.7647 C   0  0  0  0  0  0  0  0  0  0  0  0
  -17.3190  -37.6772  -24.7761 C   0  0  0  0  0  0  0  0  0  0  0  0
  -14.6904  -38.0577  -23.5603 N   0  0  0  0  0  0  0  0  0  0  0  0
  -13.8364  -38.6199  -22.7392 C   0  0  0  0  0  0  0  0  0  0  0  0
  -12.8535  -37.8084  -22.1286 C   0  0  0  0  0  0  0  0  0  0  0  0
  -11.5560  -38.0083  -22.0820 N   0  0  0  0  0  0  0  0  0  0  0  0
  -11.0425  -36.8463  -21.5526 C   0  0  0  0  0  0  0  0  0  0  0  0
  -12.0397  -35.9402  -21.2762 C   0  0  0  0  0  0  0  0  0  0  0  0
  -13.1868  -36.5662  -21.6548 N   0  0  0  0  0  0  0  0  0  0  0  0
  1  2  1  0
  2  3  1  0
  3  4  1  6
  3  5  1  0
  5  6  1  0
  6  7  2  0
  7  8  1  0
  8  9  2  0
  9 10  1  0
 10 11  2  0
 11 12  1  0
 12 13  2  0
  7 14  1  0
 14 15  2  0
 15 16  1  0
 16 17  2  0
 17 18  1  0
 18 19  2  0
 19 20  1  0
 15  5  1  0
 20 16  1  0
 13  8  1  0
M  END
>  <fragmenstein_mode>  (27) 
expansion

>  <original SMILES>  (27) 
CC[C@H](C)n1nc(-c2ccncc2)nc1-c1ncc[nH]1

>  <fragmenstein_outcome>  (27) 
acceptable

>  <energy_score>  (27) 
-49.217251

>  <tags>  (27) 
['Fragmenstein placed']

>  <original ID>  (27) 
KPIOPEUTUKAZNO-JTQLQIEISA-N

>  <alias>  (27) 
None

>  <ref_mols>  (27) 
d0191a,z0103a

>  <HIPPO Pose ID>  (27) 
59703

>  <ref_pdb>  (27) 
d0191a

>  <scratch_subdir>  (27) 
/opt/xchem-fragalysis-2/maxwin/BulkDock/SCRATCH/217042/C15205-P19

>  <HIPPO Compound ID>  (27) 
15205

>  <exports>  (27) 
['/opt/xchem-fragalysis-2/maxwin/BulkDock/OUTPUTS/RdRp_knitwork_primer_grip_n_pocket_pure_split1800_batch008_217042.sdf']

>  <fragmenstein_runtime>  (27) 
4.316276

>  <fragmenstein_error>  (27) 
None

>  <distance_score>  (27) 
0.925214

>  <csv_name>  (27) 
RdRp_knitwork_primer_grip_n_pocket_pure_split1800_batch008.csv

>  <inchikey>  (27) 
KPIOPEUTUKAZNO-JTQLQIEISA-N

>  <SLURM_JOB_NAME>  (27) 
BulkDock.place:Flavi_NS5_RdRp:RdRp_knitwork_primer_grip_n_pocket_pure_split1800_batch008

>  <SLURM_JOB_ID>  (27) 
217042

>  <name>  (27) 
KPIOPEUTUKAZNO-JTQLQIEISA-N

$$$$
59866
     RDKit          3D

 15 16  0  0  0  0  0  0  0  0999 V2000
  -14.3069  -34.8317  -20.8057 C   0  0  0  0  0  0  0  0  0  0  0  0
  -13.4973  -35.8801  -21.4621 C   0  0  0  0  0  0  0  0  0  0  0  0
  -12.1402  -36.0090  -21.6410 C   0  0  0  0  0  0  0  0  0  0  0  0
  -11.8379  -37.1818  -22.2765 N   0  0  0  0  0  0  0  0  0  0  0  0
  -12.9884  -37.8061  -22.4367 C   0  0  0  0  0  0  0  0  0  0  0  0
  -13.1898  -39.1821  -22.9816 C   0  0  0  0  0  0  0  0  0  0  0  0
  -13.5350  -40.1777  -21.9513 N   0  0  0  0  0  0  0  0  0  0  0  0
  -12.3515  -40.9594  -21.5422 C   0  0  1  0  0  0  0  0  0  0  0  0
  -11.2627  -40.1028  -20.8932 C   0  0  0  0  0  0  0  0  0  0  0  0
  -12.7287  -42.0719  -20.6179 C   0  0  0  0  0  0  0  0  0  0  0  0
  -13.1134  -41.9505  -19.3637 N   0  0  0  0  0  0  0  0  0  0  0  0
  -13.2153  -43.2292  -18.8788 C   0  0  0  0  0  0  0  0  0  0  0  0
  -12.9390  -44.1441  -19.8640 C   0  0  0  0  0  0  0  0  0  0  0  0
  -12.6321  -43.3992  -20.9732 N   0  0  0  0  0  0  0  0  0  0  0  0
  -14.0290  -37.0228  -22.0002 N   0  0  0  0  0  0  0  0  0  0  0  0
  1  2  1  0
  2  3  2  0
  3  4  1  0
  4  5  2  0
  5  6  1  0
  6  7  1  0
  7  8  1  0
  8  9  1  1
  8 10  1  0
 10 11  2  0
 11 12  1  0
 12 13  2  0
 13 14  1  0
  5 15  1  0
 15  2  1  0
 14 10  1  0
M  END
>  <fragmenstein_mode>  (28) 
expansion

>  <original SMILES>  (28) 
Cc1cnc(CN[C@@H](C)c2ncc[nH]2)[nH]1

>  <fragmenstein_outcome>  (28) 
acceptable

>  <energy_score>  (28) 
-33.773612

>  <tags>  (28) 
['Fragmenstein placed']

>  <original ID>  (28) 
VSNBBDNGMDIROM-QMMMGPOBSA-N

>  <alias>  (28) 
None

>  <ref_mols>  (28) 
z0103a,z0875c

>  <HIPPO Pose ID>  (28) 
59866

>  <ref_pdb>  (28) 
z0103a

>  <scratch_subdir>  (28) 
/opt/xchem-fragalysis-2/maxwin/BulkDock/SCRATCH/217040/C19915-P84

>  <HIPPO Compound ID>  (28) 
19915

>  <exports>  (28) 
['/opt/xchem-fragalysis-2/maxwin/BulkDock/OUTPUTS/RdRp_knitwork_primer_grip_n_pocket_pure_split1800_batch006_217040.sdf']

>  <fragmenstein_runtime>  (28) 
2.796284

>  <fragmenstein_error>  (28) 
None

>  <distance_score>  (28) 
0.946852

>  <csv_name>  (28) 
RdRp_knitwork_primer_grip_n_pocket_pure_split1800_batch006.csv

>  <inchikey>  (28) 
VSNBBDNGMDIROM-QMMMGPOBSA-N

>  <SLURM_JOB_NAME>  (28) 
BulkDock.place:Flavi_NS5_RdRp:RdRp_knitwork_primer_grip_n_pocket_pure_split1800_batch006

>  <SLURM_JOB_ID>  (28) 
217040

>  <name>  (28) 
VSNBBDNGMDIROM-QMMMGPOBSA-N

$$$$
60371
     RDKit          3D

 21 22  0  0  0  0  0  0  0  0999 V2000
  -12.8593  -34.8974  -20.8558 C   0  0  0  0  0  0  0  0  0  0  0  0
  -13.5017  -36.2142  -21.2330 C   0  0  0  0  0  0  0  0  0  0  0  0
  -12.7090  -36.9489  -22.2929 C   0  0  0  0  0  0  0  0  0  0  0  0
  -11.2798  -37.3994  -22.0441 C   0  0  0  0  0  0  0  0  0  0  0  0
  -10.7936  -37.6972  -20.6421 C   0  0  0  0  0  0  0  0  0  0  0  0
  -11.8318  -38.6136  -19.4552 S   0  0  0  0  0  0  0  0  0  0  0  0
  -12.0752  -40.2277  -20.2726 C   0  0  0  0  0  0  0  0  0  0  0  0
  -13.0949  -40.1778  -21.4127 C   0  0  0  0  0  0  0  0  0  0  0  0
  -13.7886  -41.4163  -21.7319 N   0  0  0  0  0  0  0  0  0  0  0  0
  -13.7504  -42.5940  -21.0432 C   0  0  0  0  0  0  0  0  0  0  0  0
  -14.5794  -43.4455  -21.7286 C   0  0  0  0  0  0  0  0  0  0  0  0
  -15.1348  -42.8167  -22.8052 N   0  0  0  0  0  0  0  0  0  0  0  0
  -14.6282  -41.5944  -22.8233 C   0  0  0  0  0  0  0  0  0  0  0  0
  -14.8829  -40.6122  -23.8702 C   0  0  0  0  0  0  0  0  0  0  0  0
  -14.3654  -39.4946  -23.8669 O   0  0  0  0  0  0  0  0  0  0  0  0
  -15.7844  -40.9249  -25.0139 C   0  0  0  0  0  0  0  0  0  0  0  0
  -15.5348  -40.3019  -26.2384 C   0  0  0  0  0  0  0  0  0  0  0  0
  -16.3892  -40.5642  -27.2950 C   0  0  0  0  0  0  0  0  0  0  0  0
  -17.4756  -41.3640  -27.2073 N   0  0  0  0  0  0  0  0  0  0  0  0
  -17.6940  -41.9458  -26.0081 C   0  0  0  0  0  0  0  0  0  0  0  0
  -16.8911  -41.7624  -24.8959 C   0  0  0  0  0  0  0  0  0  0  0  0
  1  2  1  0
  2  3  1  0
  3  4  1  0
  4  5  1  0
  5  6  1  0
  6  7  1  0
  7  8  1  0
  8  9  1  0
  9 10  1  0
 10 11  2  0
 11 12  1  0
 12 13  2  0
 13 14  1  0
 14 15  2  0
 14 16  1  0
 16 17  2  0
 17 18  1  0
 18 19  2  0
 19 20  1  0
 20 21  2  0
 13  9  1  0
 21 16  1  0
M  END
>  <fragmenstein_mode>  (29) 
expansion

>  <original SMILES>  (29) 
CCCCCSCCn1ccnc1C(=O)c1ccncc1

>  <fragmenstein_outcome>  (29) 
acceptable

>  <energy_score>  (29) 
-17.53291

>  <tags>  (29) 
['Fragmenstein placed']

>  <original ID>  (29) 
KMFPFVIDLLDVEH-UHFFFAOYSA-N

>  <alias>  (29) 
None

>  <ref_mols>  (29) 
d0160a,z0103a

>  <HIPPO Pose ID>  (29) 
60371

>  <ref_pdb>  (29) 
d0160a

>  <scratch_subdir>  (29) 
/opt/xchem-fragalysis-2/maxwin/BulkDock/SCRATCH/217046/C26095-P12

>  <HIPPO Compound ID>  (29) 
26095

>  <exports>  (29) 
['/opt/xchem-fragalysis-2/maxwin/BulkDock/OUTPUTS/RdRp_knitwork_primer_grip_n_pocket_pure_split1800_batch012_217046.sdf']

>  <fragmenstein_runtime>  (29) 
13.557519

>  <fragmenstein_error>  (29) 
None

>  <distance_score>  (29) 
0.99487

>  <csv_name>  (29) 
RdRp_knitwork_primer_grip_n_pocket_pure_split1800_batch012.csv

>  <inchikey>  (29) 
KMFPFVIDLLDVEH-UHFFFAOYSA-N

>  <SLURM_JOB_NAME>  (29) 
BulkDock.place:Flavi_NS5_RdRp:RdRp_knitwork_primer_grip_n_pocket_pure_split1800_batch012

>  <SLURM_JOB_ID>  (29) 
217046

>  <name>  (29) 
KMFPFVIDLLDVEH-UHFFFAOYSA-N

$$$$
60760
     RDKit          3D

 22 24  0  0  0  0  0  0  0  0999 V2000
  -14.4375  -39.1913  -23.3277 C   0  0  0  0  0  0  0  0  0  0  0  0
  -13.8586  -38.7764  -21.9803 C   0  0  1  0  0  0  0  0  0  0  0  0
  -12.8137  -39.7389  -21.3957 C   0  0  0  0  0  0  0  0  0  0  0  0
  -13.3525  -41.0418  -21.1730 N   0  0  0  0  0  0  0  0  0  0  0  0
  -13.1331  -42.0310  -20.0114 C   0  0  0  0  0  0  0  0  0  0  0  0
  -12.5395  -41.9078  -19.0173 O   0  0  0  0  0  0  0  0  0  0  0  0
  -13.8861  -43.2813  -20.2773 C   0  0  0  0  0  0  0  0  0  0  0  0
  -14.1491  -43.6964  -21.5797 C   0  0  0  0  0  0  0  0  0  0  0  0
  -15.0999  -44.6684  -21.7929 C   0  0  0  0  0  0  0  0  0  0  0  0
  -15.6633  -45.2967  -20.6891 C   0  0  0  0  0  0  0  0  0  0  0  0
  -16.6772  -46.2968  -20.9625 C   0  0  0  0  0  0  0  0  0  0  0  0
  -17.6768  -46.0193  -21.8775 N   0  0  0  0  0  0  0  0  0  0  0  0
  -18.2774  -47.1680  -22.0216 C   0  0  0  0  0  0  0  0  0  0  0  0
  -17.6833  -48.0859  -21.2263 N   0  0  0  0  0  0  0  0  0  0  0  0
  -16.6261  -47.5842  -20.5661 N   0  0  0  0  0  0  0  0  0  0  0  0
  -15.3107  -45.0296  -19.4033 N   0  0  0  0  0  0  0  0  0  0  0  0
  -14.4441  -43.9997  -19.2282 C   0  0  0  0  0  0  0  0  0  0  0  0
  -13.2141  -37.4391  -22.0520 C   0  0  0  0  0  0  0  0  0  0  0  0
  -12.0614  -37.1611  -22.6219 N   0  0  0  0  0  0  0  0  0  0  0  0
  -11.7063  -35.9367  -22.1199 C   0  0  0  0  0  0  0  0  0  0  0  0
  -12.7163  -35.4110  -21.3535 C   0  0  0  0  0  0  0  0  0  0  0  0
  -13.6957  -36.3616  -21.3572 N   0  0  0  0  0  0  0  0  0  0  0  0
  2  1  1  6
  2  3  1  0
  3  4  1  0
  4  5  1  0
  5  6  2  0
  5  7  1  0
  7  8  2  0
  8  9  1  0
  9 10  2  0
 10 11  1  0
 11 12  1  0
 12 13  2  0
 13 14  1  0
 14 15  1  0
 10 16  1  0
 16 17  2  0
  2 18  1  0
 18 19  2  0
 19 20  1  0
 20 21  2  0
 21 22  1  0
 17  7  1  0
 22 18  1  0
 15 11  2  0
M  END
>  <fragmenstein_mode>  (30) 
expansion

>  <original SMILES>  (30) 
C[C@@H](CNC(=O)c1ccc(-c2nc[nH]n2)nc1)c1ncc[nH]1

>  <fragmenstein_outcome>  (30) 
acceptable

>  <energy_score>  (30) 
-35.812646

>  <tags>  (30) 
['Fragmenstein placed']

>  <original ID>  (30) 
QAXRUQAZQORQFQ-VIFPVBQESA-N

>  <alias>  (30) 
None

>  <ref_mols>  (30) 
d0472a,z0103a

>  <HIPPO Pose ID>  (30) 
60760

>  <ref_pdb>  (30) 
d0472a

>  <scratch_subdir>  (30) 
/opt/xchem-fragalysis-2/maxwin/BulkDock/SCRATCH/217041/C16080-P42

>  <HIPPO Compound ID>  (30) 
16080

>  <exports>  (30) 
['/opt/xchem-fragalysis-2/maxwin/BulkDock/OUTPUTS/RdRp_knitwork_primer_grip_n_pocket_pure_split1800_batch007_217041.sdf']

>  <fragmenstein_runtime>  (30) 
4.875718

>  <fragmenstein_error>  (30) 
None

>  <distance_score>  (30) 
0.848256

>  <csv_name>  (30) 
RdRp_knitwork_primer_grip_n_pocket_pure_split1800_batch007.csv

>  <inchikey>  (30) 
QAXRUQAZQORQFQ-VIFPVBQESA-N

>  <SLURM_JOB_NAME>  (30) 
BulkDock.place:Flavi_NS5_RdRp:RdRp_knitwork_primer_grip_n_pocket_pure_split1800_batch007

>  <SLURM_JOB_ID>  (30) 
217041

>  <name>  (30) 
QAXRUQAZQORQFQ-VIFPVBQESA-N

$$$$
61102
     RDKit          3D

 17 19  0  0  0  0  0  0  0  0999 V2000
  -17.2702  -46.8543  -20.9486 N   0  0  0  0  0  0  0  0  0  0  0  0
  -16.6369  -45.8969  -20.7893 C   0  0  0  0  0  0  0  0  0  0  0  0
  -15.7120  -44.8576  -20.5076 C   0  0  0  0  0  0  0  0  0  0  0  0
  -15.5328  -43.6227  -21.1045 C   0  0  0  0  0  0  0  0  0  0  0  0
  -14.3030  -43.1159  -20.6159 C   0  0  0  0  0  0  0  0  0  0  0  0
  -13.5190  -41.8266  -21.0116 C   0  0  0  0  0  0  0  0  0  0  0  0
  -14.0045  -40.7593  -21.6207 N   0  0  0  0  0  0  0  0  0  0  0  0
  -12.9051  -39.9298  -21.6540 C   0  0  0  0  0  0  0  0  0  0  0  0
  -12.9402  -38.4171  -21.9972 C   0  0  0  0  0  0  0  0  0  0  0  0
  -11.8846  -37.6369  -22.1357 N   0  0  0  0  0  0  0  0  0  0  0  0
  -12.3540  -36.3618  -21.9872 C   0  0  0  0  0  0  0  0  0  0  0  0
  -13.7134  -36.3835  -21.7911 C   0  0  0  0  0  0  0  0  0  0  0  0
  -14.0923  -37.6831  -22.0037 N   0  0  0  0  0  0  0  0  0  0  0  0
  -11.7831  -40.4653  -21.1650 N   0  0  0  0  0  0  0  0  0  0  0  0
  -12.1978  -41.6947  -20.6919 O   0  0  0  0  0  0  0  0  0  0  0  0
  -13.8259  -44.0062  -19.6742 C   0  0  0  0  0  0  0  0  0  0  0  0
  -14.7481  -45.0039  -19.5428 N   0  0  0  0  0  0  0  0  0  0  0  0
  1  2  3  0
  2  3  1  0
  3  4  2  0
  4  5  1  0
  5  6  1  0
  6  7  2  0
  7  8  1  0
  8  9  1  0
  9 10  2  0
 10 11  1  0
 11 12  2  0
 12 13  1  0
  8 14  2  0
 14 15  1  0
  5 16  2  0
 16 17  1  0
 17  3  1  0
 15  6  1  0
 13  9  1  0
M  END
>  <fragmenstein_mode>  (31) 
expansion

>  <original SMILES>  (31) 
N#Cc1cc(-c2nc(-c3ncc[nH]3)no2)c[nH]1

>  <fragmenstein_outcome>  (31) 
acceptable

>  <energy_score>  (31) 
-18.717321

>  <tags>  (31) 
['Fragmenstein placed']

>  <original ID>  (31) 
ZOCNQADNACGXJL-UHFFFAOYSA-N

>  <alias>  (31) 
None

>  <ref_mols>  (31) 
d0472a,z0103a

>  <HIPPO Pose ID>  (31) 
61102

>  <ref_pdb>  (31) 
d0472a

>  <scratch_subdir>  (31) 
/opt/xchem-fragalysis-2/maxwin/BulkDock/SCRATCH/217041/C10451-P42

>  <HIPPO Compound ID>  (31) 
10451

>  <exports>  (31) 
['/opt/xchem-fragalysis-2/maxwin/BulkDock/OUTPUTS/RdRp_knitwork_primer_grip_n_pocket_pure_split1800_batch007_217041.sdf']

>  <fragmenstein_runtime>  (31) 
3.640651

>  <fragmenstein_error>  (31) 
None

>  <distance_score>  (31) 
0.975375

>  <csv_name>  (31) 
RdRp_knitwork_primer_grip_n_pocket_pure_split1800_batch007.csv

>  <inchikey>  (31) 
ZOCNQADNACGXJL-UHFFFAOYSA-N

>  <SLURM_JOB_NAME>  (31) 
BulkDock.place:Flavi_NS5_RdRp:RdRp_knitwork_primer_grip_n_pocket_pure_split1800_batch007

>  <SLURM_JOB_ID>  (31) 
217041

>  <name>  (31) 
ZOCNQADNACGXJL-UHFFFAOYSA-N

$$$$
61485
     RDKit          3D

 20 22  0  0  0  0  0  0  0  0999 V2000
  -12.2385  -41.1530  -21.2641 O   0  0  0  0  0  0  0  0  0  0  0  0
  -13.3918  -41.3088  -21.3274 C   0  0  0  0  0  0  0  0  0  0  0  0
  -14.4729  -40.4748  -22.0351 N   0  0  0  0  0  0  0  0  0  0  0  0
  -14.3544  -39.3211  -22.8975 C   0  0  0  0  0  0  0  0  0  0  0  0
  -13.4705  -38.2424  -22.3614 C   0  0  0  0  0  0  0  0  0  0  0  0
  -13.7487  -36.9527  -22.3193 N   0  0  0  0  0  0  0  0  0  0  0  0
  -12.6104  -36.3258  -21.8854 C   0  0  0  0  0  0  0  0  0  0  0  0
  -11.6107  -37.2391  -21.6745 C   0  0  0  0  0  0  0  0  0  0  0  0
  -12.1740  -38.4534  -21.9519 N   0  0  0  0  0  0  0  0  0  0  0  0
  -13.9782  -42.5248  -20.6753 C   0  0  0  0  0  0  0  0  0  0  0  0
  -13.4886  -42.8935  -19.4282 C   0  0  0  0  0  0  0  0  0  0  0  0
  -14.0242  -44.0155  -18.8315 C   0  0  0  0  0  0  0  0  0  0  0  0
  -14.9620  -44.8036  -19.3978 N   0  0  0  0  0  0  0  0  0  0  0  0
  -15.4255  -44.4415  -20.6243 C   0  0  0  0  0  0  0  0  0  0  0  0
  -16.4509  -45.2577  -21.1972 N   0  0  0  0  0  0  0  0  0  0  0  0
  -16.9020  -46.4548  -20.6647 C   0  0  0  0  0  0  0  0  0  0  0  0
  -17.8872  -46.9611  -21.4810 C   0  0  0  0  0  0  0  0  0  0  0  0
  -18.0849  -46.0381  -22.5255 C   0  0  0  0  0  0  0  0  0  0  0  0
  -17.1886  -45.0104  -22.3375 C   0  0  0  0  0  0  0  0  0  0  0  0
  -14.9525  -43.3155  -21.2993 C   0  0  0  0  0  0  0  0  0  0  0  0
  1  2  2  0
  2  3  1  0
  3  4  1  0
  4  5  1  0
  5  6  2  0
  6  7  1  0
  7  8  2  0
  8  9  1  0
  2 10  1  0
 10 11  2  0
 11 12  1  0
 12 13  2  0
 13 14  1  0
 14 15  1  0
 15 16  1  0
 16 17  2  0
 17 18  1  0
 18 19  2  0
 14 20  2  0
  9  5  1  0
 20 10  1  0
 19 15  1  0
M  END
>  <fragmenstein_mode>  (32) 
expansion

>  <original SMILES>  (32) 
O=C(NCc1ncc[nH]1)c1ccnc(-n2cccc2)c1

>  <fragmenstein_outcome>  (32) 
acceptable

>  <energy_score>  (32) 
-46.646488

>  <tags>  (32) 
['Fragmenstein placed']

>  <original ID>  (32) 
KIPALFXJCVMDSL-UHFFFAOYSA-N

>  <alias>  (32) 
None

>  <ref_mols>  (32) 
d0472a,z0103a

>  <HIPPO Pose ID>  (32) 
61485

>  <ref_pdb>  (32) 
d0472a

>  <scratch_subdir>  (32) 
/opt/xchem-fragalysis-2/maxwin/BulkDock/SCRATCH/217041/C19773-P42

>  <HIPPO Compound ID>  (32) 
19773

>  <exports>  (32) 
['/opt/xchem-fragalysis-2/maxwin/BulkDock/OUTPUTS/RdRp_knitwork_primer_grip_n_pocket_pure_split1800_batch007_217041.sdf']

>  <fragmenstein_runtime>  (32) 
4.052851

>  <fragmenstein_error>  (32) 
None

>  <distance_score>  (32) 
0.866338

>  <csv_name>  (32) 
RdRp_knitwork_primer_grip_n_pocket_pure_split1800_batch007.csv

>  <inchikey>  (32) 
KIPALFXJCVMDSL-UHFFFAOYSA-N

>  <SLURM_JOB_NAME>  (32) 
BulkDock.place:Flavi_NS5_RdRp:RdRp_knitwork_primer_grip_n_pocket_pure_split1800_batch007

>  <SLURM_JOB_ID>  (32) 
217041

>  <name>  (32) 
KIPALFXJCVMDSL-UHFFFAOYSA-N

$$$$
61491
     RDKit          3D

 21 23  0  0  0  0  0  0  0  0999 V2000
  -15.7661  -38.7909  -23.3149 C   0  0  0  0  0  0  0  0  0  0  0  0
  -14.3812  -39.3107  -22.9399 C   0  0  2  0  0  0  0  0  0  0  0  0
  -14.4960  -40.4611  -22.0578 N   0  0  0  0  0  0  0  0  0  0  0  0
  -13.4108  -41.2885  -21.3481 C   0  0  0  0  0  0  0  0  0  0  0  0
  -12.2568  -41.1338  -21.2950 O   0  0  0  0  0  0  0  0  0  0  0  0
  -13.9911  -42.5038  -20.6890 C   0  0  0  0  0  0  0  0  0  0  0  0
  -13.4885  -42.8730  -19.4471 C   0  0  0  0  0  0  0  0  0  0  0  0
  -14.0130  -43.9991  -18.8481 C   0  0  0  0  0  0  0  0  0  0  0  0
  -14.9525  -44.7904  -19.4071 N   0  0  0  0  0  0  0  0  0  0  0  0
  -15.4280  -44.4284  -20.6293 C   0  0  0  0  0  0  0  0  0  0  0  0
  -16.4514  -45.2507  -21.1971 N   0  0  0  0  0  0  0  0  0  0  0  0
  -16.8921  -46.4511  -20.6629 C   0  0  0  0  0  0  0  0  0  0  0  0
  -17.8765  -46.9645  -21.4757 C   0  0  0  0  0  0  0  0  0  0  0  0
  -18.0847  -46.0429  -22.5194 C   0  0  0  0  0  0  0  0  0  0  0  0
  -17.1957  -45.0083  -22.3341 C   0  0  0  0  0  0  0  0  0  0  0  0
  -14.9668  -43.2984  -21.3059 C   0  0  0  0  0  0  0  0  0  0  0  0
  -13.5082  -38.2226  -22.3677 C   0  0  0  0  0  0  0  0  0  0  0  0
  -13.7911  -36.9352  -22.2756 N   0  0  0  0  0  0  0  0  0  0  0  0
  -12.6501  -36.3159  -21.8391 C   0  0  0  0  0  0  0  0  0  0  0  0
  -11.6426  -37.2292  -21.6727 C   0  0  0  0  0  0  0  0  0  0  0  0
  -12.2044  -38.4370  -21.9781 N   0  0  0  0  0  0  0  0  0  0  0  0
  2  1  1  1
  2  3  1  0
  3  4  1  0
  4  5  2  0
  4  6  1  0
  6  7  2  0
  7  8  1  0
  8  9  2  0
  9 10  1  0
 10 11  1  0
 11 12  1  0
 12 13  2  0
 13 14  1  0
 14 15  2  0
 10 16  2  0
  2 17  1  0
 17 18  2  0
 18 19  1  0
 19 20  2  0
 20 21  1  0
 16  6  1  0
 21 17  1  0
 15 11  1  0
M  END
>  <fragmenstein_mode>  (33) 
expansion

>  <original SMILES>  (33) 
C[C@H](NC(=O)c1ccnc(-n2cccc2)c1)c1ncc[nH]1

>  <fragmenstein_outcome>  (33) 
acceptable

>  <energy_score>  (33) 
-46.182851

>  <tags>  (33) 
['Fragmenstein placed']

>  <original ID>  (33) 
DNLUSRYLIQAQAE-NSHDSACASA-N

>  <alias>  (33) 
None

>  <ref_mols>  (33) 
d0472a,z0103a

>  <HIPPO Pose ID>  (33) 
61491

>  <ref_pdb>  (33) 
d0472a

>  <scratch_subdir>  (33) 
/opt/xchem-fragalysis-2/maxwin/BulkDock/SCRATCH/217041/C19774-P42

>  <HIPPO Compound ID>  (33) 
19774

>  <exports>  (33) 
['/opt/xchem-fragalysis-2/maxwin/BulkDock/OUTPUTS/RdRp_knitwork_primer_grip_n_pocket_pure_split1800_batch007_217041.sdf']

>  <fragmenstein_runtime>  (33) 
3.960283

>  <fragmenstein_error>  (33) 
None

>  <distance_score>  (33) 
0.866441

>  <csv_name>  (33) 
RdRp_knitwork_primer_grip_n_pocket_pure_split1800_batch007.csv

>  <inchikey>  (33) 
DNLUSRYLIQAQAE-NSHDSACASA-N

>  <SLURM_JOB_NAME>  (33) 
BulkDock.place:Flavi_NS5_RdRp:RdRp_knitwork_primer_grip_n_pocket_pure_split1800_batch007

>  <SLURM_JOB_ID>  (33) 
217041

>  <name>  (33) 
DNLUSRYLIQAQAE-NSHDSACASA-N

$$$$
61506
     RDKit          3D

 21 24  0  0  0  0  0  0  0  0999 V2000
  -18.2471  -46.0541  -22.7097 C   0  0  0  0  0  0  0  0  0  0  0  0
  -18.1394  -47.0278  -21.6978 C   0  0  0  0  0  0  0  0  0  0  0  0
  -17.1853  -46.5903  -20.8094 C   0  0  0  0  0  0  0  0  0  0  0  0
  -16.6703  -45.3869  -21.2625 N   0  0  0  0  0  0  0  0  0  0  0  0
  -15.6475  -44.6436  -20.6024 C   0  0  0  0  0  0  0  0  0  0  0  0
  -15.1083  -43.4945  -21.1821 C   0  0  0  0  0  0  0  0  0  0  0  0
  -14.1101  -42.8052  -20.4875 C   0  0  0  0  0  0  0  0  0  0  0  0
  -13.5008  -41.5936  -21.0108 C   0  0  0  0  0  0  0  0  0  0  0  0
  -14.0295  -40.4664  -21.4451 N   0  0  0  0  0  0  0  0  0  0  0  0
  -12.9067  -39.7003  -21.6582 C   0  0  0  0  0  0  0  0  0  0  0  0
  -12.9138  -38.1807  -21.9563 C   0  0  0  0  0  0  0  0  0  0  0  0
  -11.8497  -37.4543  -22.2382 N   0  0  0  0  0  0  0  0  0  0  0  0
  -12.2205  -36.1619  -21.9943 C   0  0  0  0  0  0  0  0  0  0  0  0
  -13.5373  -36.1148  -21.6056 C   0  0  0  0  0  0  0  0  0  0  0  0
  -14.0125  -37.3886  -21.7773 N   0  0  0  0  0  0  0  0  0  0  0  0
  -11.7510  -40.3113  -21.3851 N   0  0  0  0  0  0  0  0  0  0  0  0
  -12.1400  -41.5577  -20.9331 O   0  0  0  0  0  0  0  0  0  0  0  0
  -13.7122  -43.2727  -19.2332 C   0  0  0  0  0  0  0  0  0  0  0  0
  -14.3308  -44.3919  -18.7209 C   0  0  0  0  0  0  0  0  0  0  0  0
  -15.2546  -45.1057  -19.3850 N   0  0  0  0  0  0  0  0  0  0  0  0
  -17.3363  -45.0623  -22.4249 C   0  0  0  0  0  0  0  0  0  0  0  0
  1  2  1  0
  2  3  2  0
  3  4  1  0
  4  5  1  0
  5  6  2  0
  6  7  1  0
  7  8  1  0
  8  9  2  0
  9 10  1  0
 10 11  1  0
 11 12  2  0
 12 13  1  0
 13 14  2  0
 14 15  1  0
 10 16  2  0
 16 17  1  0
  7 18  2  0
 18 19  1  0
 19 20  2  0
  4 21  1  0
 21  1  2  0
 20  5  1  0
 17  8  1  0
 15 11  1  0
M  END
>  <fragmenstein_mode>  (34) 
expansion

>  <original SMILES>  (34) 
c1ccn(-c2cc(-c3nc(-c4ncc[nH]4)no3)ccn2)c1

>  <fragmenstein_outcome>  (34) 
acceptable

>  <energy_score>  (34) 
-36.182453

>  <tags>  (34) 
['Fragmenstein placed']

>  <original ID>  (34) 
VLACRKWMAXMGLQ-UHFFFAOYSA-N

>  <alias>  (34) 
None

>  <ref_mols>  (34) 
d0472a,z0103a

>  <HIPPO Pose ID>  (34) 
61506

>  <ref_pdb>  (34) 
d0472a

>  <scratch_subdir>  (34) 
/opt/xchem-fragalysis-2/maxwin/BulkDock/SCRATCH/217041/C19952-P42

>  <HIPPO Compound ID>  (34) 
19952

>  <exports>  (34) 
['/opt/xchem-fragalysis-2/maxwin/BulkDock/OUTPUTS/RdRp_knitwork_primer_grip_n_pocket_pure_split1800_batch007_217041.sdf']

>  <fragmenstein_runtime>  (34) 
2.59672

>  <fragmenstein_error>  (34) 
None

>  <distance_score>  (34) 
0.881052

>  <csv_name>  (34) 
RdRp_knitwork_primer_grip_n_pocket_pure_split1800_batch007.csv

>  <inchikey>  (34) 
VLACRKWMAXMGLQ-UHFFFAOYSA-N

>  <SLURM_JOB_NAME>  (34) 
BulkDock.place:Flavi_NS5_RdRp:RdRp_knitwork_primer_grip_n_pocket_pure_split1800_batch007

>  <SLURM_JOB_ID>  (34) 
217041

>  <name>  (34) 
VLACRKWMAXMGLQ-UHFFFAOYSA-N

$$$$
61756
     RDKit          3D

 22 25  0  0  0  0  0  0  0  0999 V2000
  -10.0012  -43.2450  -12.8289 C   0  0  0  0  0  0  0  0  0  0  0  0
  -11.1371  -43.9599  -13.1885 C   0  0  0  0  0  0  0  0  0  0  0  0
  -11.7699  -43.6735  -14.3958 C   0  0  0  0  0  0  0  0  0  0  0  0
  -11.2395  -42.6757  -15.2113 C   0  0  0  0  0  0  0  0  0  0  0  0
  -11.8147  -42.3489  -16.5105 C   0  0  0  0  0  0  0  0  0  0  0  0
  -11.7144  -41.2661  -17.2566 N   0  0  0  0  0  0  0  0  0  0  0  0
  -12.4177  -41.5174  -18.4194 N   0  0  0  0  0  0  0  0  0  0  0  0
  -12.8835  -42.7453  -18.3145 C   0  0  0  0  0  0  0  0  0  0  0  0
  -13.7377  -43.5050  -19.2085 C   0  0  0  0  0  0  0  0  0  0  0  0
  -14.1383  -43.0199  -20.4428 C   0  0  0  0  0  0  0  0  0  0  0  0
  -15.1026  -43.7249  -21.1612 C   0  0  0  0  0  0  0  0  0  0  0  0
  -15.6179  -44.8892  -20.6079 C   0  0  0  0  0  0  0  0  0  0  0  0
  -16.6659  -45.6032  -21.2339 N   0  0  0  0  0  0  0  0  0  0  0  0
  -17.2012  -46.7963  -20.7975 C   0  0  0  0  0  0  0  0  0  0  0  0
  -18.1814  -47.1166  -21.7042 C   0  0  0  0  0  0  0  0  0  0  0  0
  -18.2894  -46.1514  -22.6648 N   0  0  0  0  0  0  0  0  0  0  0  0
  -17.3742  -45.2600  -22.3594 C   0  0  0  0  0  0  0  0  0  0  0  0
  -15.1547  -45.3769  -19.4314 N   0  0  0  0  0  0  0  0  0  0  0  0
  -14.2152  -44.6770  -18.7249 N   0  0  0  0  0  0  0  0  0  0  0  0
  -12.5478  -43.3368  -17.1213 O   0  0  0  0  0  0  0  0  0  0  0  0
  -10.1316  -41.9702  -14.8726 N   0  0  0  0  0  0  0  0  0  0  0  0
   -9.5415  -42.2673  -13.6942 C   0  0  0  0  0  0  0  0  0  0  0  0
  1  2  2  0
  2  3  1  0
  3  4  2  0
  4  5  1  0
  5  6  2  0
  6  7  1  0
  7  8  2  0
  8  9  1  0
  9 10  2  0
 10 11  1  0
 11 12  2  0
 12 13  1  0
 13 14  1  0
 14 15  2  0
 15 16  1  0
 16 17  2  0
 12 18  1  0
 18 19  2  0
  8 20  1  0
  4 21  1  0
 21 22  2  0
 22  1  1  0
 20  5  1  0
 19  9  1  0
 17 13  1  0
M  END
>  <fragmenstein_mode>  (35) 
expansion

>  <original SMILES>  (35) 
c1ccc(-c2nnc(-c3ccc(-n4ccnc4)nn3)o2)nc1

>  <fragmenstein_outcome>  (35) 
acceptable

>  <energy_score>  (35) 
-28.076393

>  <tags>  (35) 
['Fragmenstein placed']

>  <original ID>  (35) 
LAVQVQHXFQSYSG-UHFFFAOYSA-N

>  <alias>  (35) 
None

>  <ref_mols>  (35) 
d0472a,z0103a

>  <HIPPO Pose ID>  (35) 
61756

>  <ref_pdb>  (35) 
d0472a

>  <scratch_subdir>  (35) 
/opt/xchem-fragalysis-2/maxwin/BulkDock/SCRATCH/217041/C20855-P42

>  <HIPPO Compound ID>  (35) 
20855

>  <exports>  (35) 
['/opt/xchem-fragalysis-2/maxwin/BulkDock/OUTPUTS/RdRp_knitwork_primer_grip_n_pocket_pure_split1800_batch007_217041.sdf']

>  <fragmenstein_runtime>  (35) 
2.727571

>  <fragmenstein_error>  (35) 
None

>  <distance_score>  (35) 
0.652161

>  <csv_name>  (35) 
RdRp_knitwork_primer_grip_n_pocket_pure_split1800_batch007.csv

>  <inchikey>  (35) 
LAVQVQHXFQSYSG-UHFFFAOYSA-N

>  <SLURM_JOB_NAME>  (35) 
BulkDock.place:Flavi_NS5_RdRp:RdRp_knitwork_primer_grip_n_pocket_pure_split1800_batch007

>  <SLURM_JOB_ID>  (35) 
217041

>  <name>  (35) 
LAVQVQHXFQSYSG-UHFFFAOYSA-N

$$$$
61791
     RDKit          3D

 16 17  0  0  0  0  0  0  0  0999 V2000
  -11.0496  -40.1190  -16.3506 C   0  0  0  0  0  0  0  0  0  0  0  0
  -10.8845  -40.4196  -17.7376 O   0  0  0  0  0  0  0  0  0  0  0  0
  -10.3933  -39.3779  -18.4742 C   0  0  0  0  0  0  0  0  0  0  0  0
  -10.0480  -38.3049  -17.9935 O   0  0  0  0  0  0  0  0  0  0  0  0
  -10.2261  -39.7401  -19.9315 C   0  0  0  0  0  0  0  0  0  0  0  0
  -11.4594  -40.3563  -20.4981 C   0  0  0  0  0  0  0  0  0  0  0  0
  -12.2639  -39.8365  -21.4013 N   0  0  0  0  0  0  0  0  0  0  0  0
  -13.2784  -40.7463  -21.5495 C   0  0  0  0  0  0  0  0  0  0  0  0
  -13.0753  -41.8748  -20.7732 C   0  0  0  0  0  0  0  0  0  0  0  0
  -13.8876  -43.0780  -20.5925 C   0  0  0  0  0  0  0  0  0  0  0  0
  -14.8318  -43.4331  -21.5582 C   0  0  0  0  0  0  0  0  0  0  0  0
  -15.6766  -44.5209  -21.3548 C   0  0  0  0  0  0  0  0  0  0  0  0
  -15.5491  -45.2402  -20.1808 C   0  0  0  0  0  0  0  0  0  0  0  0
  -14.6273  -44.9695  -19.2311 N   0  0  0  0  0  0  0  0  0  0  0  0
  -13.8250  -43.8931  -19.4623 C   0  0  0  0  0  0  0  0  0  0  0  0
  -11.8697  -41.6254  -20.1611 N   0  0  0  0  0  0  0  0  0  0  0  0
  1  2  1  0
  2  3  1  0
  3  4  2  0
  3  5  1  0
  5  6  1  0
  6  7  2  0
  7  8  1  0
  8  9  2  0
  9 10  1  0
 10 11  2  0
 11 12  1  0
 12 13  2  0
 13 14  1  0
 14 15  2  0
  9 16  1  0
 16  6  1  0
 15 10  1  0
M  END
>  <fragmenstein_mode>  (36) 
expansion

>  <original SMILES>  (36) 
COC(=O)Cc1ncc(-c2cccnc2)[nH]1

>  <fragmenstein_outcome>  (36) 
acceptable

>  <energy_score>  (36) 
-17.579155

>  <tags>  (36) 
['Fragmenstein placed']

>  <original ID>  (36) 
IIZANSIZQDRZIS-UHFFFAOYSA-N

>  <alias>  (36) 
None

>  <ref_mols>  (36) 
d0472a,z0875c

>  <HIPPO Pose ID>  (36) 
61791

>  <ref_pdb>  (36) 
d0472a

>  <scratch_subdir>  (36) 
/opt/xchem-fragalysis-2/maxwin/BulkDock/SCRATCH/217049/C21156-P42

>  <HIPPO Compound ID>  (36) 
21156

>  <exports>  (36) 
['/opt/xchem-fragalysis-2/maxwin/BulkDock/OUTPUTS/RdRp_knitwork_primer_grip_n_pocket_pure_split1800_batch015_217049.sdf']

>  <fragmenstein_runtime>  (36) 
1.74736

>  <fragmenstein_error>  (36) 
None

>  <distance_score>  (36) 
0.997497

>  <csv_name>  (36) 
RdRp_knitwork_primer_grip_n_pocket_pure_split1800_batch015.csv

>  <inchikey>  (36) 
IIZANSIZQDRZIS-UHFFFAOYSA-N

>  <SLURM_JOB_NAME>  (36) 
BulkDock.place:Flavi_NS5_RdRp:RdRp_knitwork_primer_grip_n_pocket_pure_split1800_batch015

>  <SLURM_JOB_ID>  (36) 
217049

>  <name>  (36) 
IIZANSIZQDRZIS-UHFFFAOYSA-N

$$$$
62089
     RDKit          3D

 16 17  0  0  0  0  0  0  0  0999 V2000
   -8.0742  -39.1246  -17.5737 N   0  0  0  0  0  0  0  0  0  0  0  0
   -7.2948  -38.9536  -18.7923 C   0  0  0  0  0  0  0  0  0  0  0  0
   -8.1125  -38.3644  -19.9429 C   0  0  0  0  0  0  0  0  0  0  0  0
   -9.1480  -39.3109  -20.5640 C   0  0  0  0  0  0  0  0  0  0  0  0
  -10.3694  -39.5637  -19.6849 C   0  0  0  0  0  0  0  0  0  0  0  0
  -11.4642  -40.2675  -20.4213 C   0  0  0  0  0  0  0  0  0  0  0  0
  -12.2297  -39.7766  -21.3725 N   0  0  0  0  0  0  0  0  0  0  0  0
  -13.2039  -40.7201  -21.5709 C   0  0  0  0  0  0  0  0  0  0  0  0
  -13.0118  -41.8377  -20.7745 C   0  0  0  0  0  0  0  0  0  0  0  0
  -13.8208  -43.0468  -20.6044 C   0  0  0  0  0  0  0  0  0  0  0  0
  -14.7590  -43.4014  -21.5768 C   0  0  0  0  0  0  0  0  0  0  0  0
  -15.6139  -44.4822  -21.3764 C   0  0  0  0  0  0  0  0  0  0  0  0
  -15.5025  -45.1970  -20.1981 C   0  0  0  0  0  0  0  0  0  0  0  0
  -14.5857  -44.9299  -19.2427 N   0  0  0  0  0  0  0  0  0  0  0  0
  -13.7733  -43.8598  -19.4718 C   0  0  0  0  0  0  0  0  0  0  0  0
  -11.8363  -41.5552  -20.1160 N   0  0  0  0  0  0  0  0  0  0  0  0
  1  2  1  0
  2  3  1  0
  3  4  1  0
  4  5  1  0
  5  6  1  0
  6  7  2  0
  7  8  1  0
  8  9  2  0
  9 10  1  0
 10 11  2  0
 11 12  1  0
 12 13  2  0
 13 14  1  0
 14 15  2  0
  9 16  1  0
 16  6  1  0
 15 10  1  0
M  END
>  <fragmenstein_mode>  (37) 
expansion

>  <original SMILES>  (37) 
NCCCCc1ncc(-c2cccnc2)[nH]1

>  <fragmenstein_outcome>  (37) 
acceptable

>  <energy_score>  (37) 
-18.712414

>  <tags>  (37) 
['Fragmenstein placed']

>  <original ID>  (37) 
FOTDQMUGQXBOIM-UHFFFAOYSA-N

>  <alias>  (37) 
None

>  <ref_mols>  (37) 
d0472a,z0875c

>  <HIPPO Pose ID>  (37) 
62089

>  <ref_pdb>  (37) 
d0472a

>  <scratch_subdir>  (37) 
/opt/xchem-fragalysis-2/maxwin/BulkDock/SCRATCH/217049/C21766-P42

>  <HIPPO Compound ID>  (37) 
21766

>  <exports>  (37) 
['/opt/xchem-fragalysis-2/maxwin/BulkDock/OUTPUTS/RdRp_knitwork_primer_grip_n_pocket_pure_split1800_batch015_217049.sdf']

>  <fragmenstein_runtime>  (37) 
2.095286

>  <fragmenstein_error>  (37) 
None

>  <distance_score>  (37) 
0.991844

>  <csv_name>  (37) 
RdRp_knitwork_primer_grip_n_pocket_pure_split1800_batch015.csv

>  <inchikey>  (37) 
FOTDQMUGQXBOIM-UHFFFAOYSA-N

>  <SLURM_JOB_NAME>  (37) 
BulkDock.place:Flavi_NS5_RdRp:RdRp_knitwork_primer_grip_n_pocket_pure_split1800_batch015

>  <SLURM_JOB_ID>  (37) 
217049

>  <name>  (37) 
FOTDQMUGQXBOIM-UHFFFAOYSA-N

$$$$
62166
     RDKit          3D

 15 16  0  0  0  0  0  0  0  0999 V2000
  -17.7548  -38.9160  -24.7938 C   0  0  0  0  0  0  0  0  0  0  0  0
  -16.5448  -38.9293  -25.7180 C   0  0  0  0  0  0  0  0  0  0  0  0
  -16.0246  -40.3276  -26.0552 C   0  0  1  0  0  0  0  0  0  0  0  0
  -15.5042  -41.1334  -24.8606 C   0  0  0  0  0  0  0  0  0  0  0  0
  -16.5026  -42.2716  -24.7037 C   0  0  2  0  0  0  0  0  0  0  0  0
  -15.9239  -43.5119  -24.1810 N   0  0  0  0  0  0  0  0  0  0  0  0
  -16.1222  -43.7330  -22.7453 C   0  0  0  0  0  0  0  0  0  0  0  0
  -17.3527  -44.6188  -22.4770 C   0  0  0  0  0  0  0  0  0  0  0  0
  -17.4942  -45.0796  -21.0609 C   0  0  0  0  0  0  0  0  0  0  0  0
  -18.6180  -45.3264  -20.2993 C   0  0  0  0  0  0  0  0  0  0  0  0
  -18.1295  -45.8022  -19.0698 C   0  0  0  0  0  0  0  0  0  0  0  0
  -16.7970  -45.8476  -19.0413 N   0  0  0  0  0  0  0  0  0  0  0  0
  -16.4347  -45.4181  -20.2594 N   0  0  0  0  0  0  0  0  0  0  0  0
  -16.9922  -42.4252  -26.1401 C   0  0  0  0  0  0  0  0  0  0  0  0
  -17.0758  -41.0986  -26.6740 O   0  0  0  0  0  0  0  0  0  0  0  0
  1  2  1  0
  3  2  1  1
  3  4  1  0
  4  5  1  0
  5  6  1  6
  6  7  1  0
  7  8  1  0
  8  9  1  0
  9 10  2  0
 10 11  1  0
 11 12  2  0
 12 13  1  0
  5 14  1  0
 14 15  1  0
 15  3  1  0
 13  9  1  0
M  END
>  <fragmenstein_mode>  (38) 
expansion

>  <original SMILES>  (38) 
CC[C@H]1C[C@H](NCCc2ccn[nH]2)CO1

>  <fragmenstein_outcome>  (38) 
acceptable

>  <energy_score>  (38) 
-21.971788

>  <tags>  (38) 
['Fragmenstein placed']

>  <original ID>  (38) 
VAKNKFGBVYKSDR-QWRGUYRKSA-N

>  <alias>  (38) 
None

>  <ref_mols>  (38) 
d0160a,d0254a

>  <HIPPO Pose ID>  (38) 
62166

>  <ref_pdb>  (38) 
d0160a

>  <scratch_subdir>  (38) 
/opt/xchem-fragalysis-2/maxwin/BulkDock/SCRATCH/217042/C19934-P12

>  <HIPPO Compound ID>  (38) 
19934

>  <exports>  (38) 
['/opt/xchem-fragalysis-2/maxwin/BulkDock/OUTPUTS/RdRp_knitwork_primer_grip_n_pocket_pure_split1800_batch008_217042.sdf']

>  <fragmenstein_runtime>  (38) 
2.061605

>  <fragmenstein_error>  (38) 
None

>  <distance_score>  (38) 
0.926999

>  <csv_name>  (38) 
RdRp_knitwork_primer_grip_n_pocket_pure_split1800_batch008.csv

>  <inchikey>  (38) 
VAKNKFGBVYKSDR-QWRGUYRKSA-N

>  <SLURM_JOB_NAME>  (38) 
BulkDock.place:Flavi_NS5_RdRp:RdRp_knitwork_primer_grip_n_pocket_pure_split1800_batch008

>  <SLURM_JOB_ID>  (38) 
217042

>  <name>  (38) 
VAKNKFGBVYKSDR-QWRGUYRKSA-N

$$$$
62305
     RDKit          3D

 14 15  0  0  0  0  0  0  0  0999 V2000
  -16.0944  -40.9026  -21.4065 O   0  0  0  0  0  0  0  0  0  0  0  0
  -14.9761  -41.4761  -22.1129 C   0  0  2  0  0  0  0  0  0  0  0  0
  -15.1560  -43.0104  -22.1234 C   0  0  0  0  0  0  0  0  0  0  0  0
  -16.5417  -43.3674  -22.5148 N   0  0  0  0  0  0  0  0  0  0  0  0
  -16.8152  -44.8017  -22.4087 C   0  0  0  0  0  0  0  0  0  0  0  0
  -17.2080  -45.2040  -21.0364 C   0  0  0  0  0  0  0  0  0  0  0  0
  -18.4399  -45.3860  -20.4418 C   0  0  0  0  0  0  0  0  0  0  0  0
  -18.1531  -45.8422  -19.1425 C   0  0  0  0  0  0  0  0  0  0  0  0
  -16.8413  -45.9358  -18.9178 N   0  0  0  0  0  0  0  0  0  0  0  0
  -16.2921  -45.5246  -20.0716 N   0  0  0  0  0  0  0  0  0  0  0  0
  -13.7132  -41.0066  -21.4225 C   0  0  0  0  0  0  0  0  0  0  0  0
  -13.5296  -39.6238  -22.0088 C   0  0  0  0  0  0  0  0  0  0  0  0
  -13.9764  -39.6895  -23.3660 O   0  0  0  0  0  0  0  0  0  0  0  0
  -14.8518  -40.8324  -23.4963 C   0  0  0  0  0  0  0  0  0  0  0  0
  2  1  1  1
  2  3  1  0
  3  4  1  0
  4  5  1  0
  5  6  1  0
  6  7  2  0
  7  8  1  0
  8  9  2  0
  9 10  1  0
  2 11  1  0
 11 12  1  0
 12 13  1  0
 13 14  1  0
 14  2  1  0
 10  6  1  0
M  END
>  <fragmenstein_mode>  (39) 
expansion

>  <original SMILES>  (39) 
O[C@]1(CNCc2ccn[nH]2)CCOC1

>  <fragmenstein_outcome>  (39) 
acceptable

>  <energy_score>  (39) 
-23.768821

>  <tags>  (39) 
['Fragmenstein placed']

>  <original ID>  (39) 
KSJKSHACFSYXRS-VIFPVBQESA-N

>  <alias>  (39) 
None

>  <ref_mols>  (39) 
d0160a,d0254a

>  <HIPPO Pose ID>  (39) 
62305

>  <ref_pdb>  (39) 
d0160a

>  <scratch_subdir>  (39) 
/opt/xchem-fragalysis-2/maxwin/BulkDock/SCRATCH/217042/C10197-P12

>  <HIPPO Compound ID>  (39) 
10197

>  <exports>  (39) 
['/opt/xchem-fragalysis-2/maxwin/BulkDock/OUTPUTS/RdRp_knitwork_primer_grip_n_pocket_pure_split1800_batch008_217042.sdf']

>  <fragmenstein_runtime>  (39) 
1.166278

>  <fragmenstein_error>  (39) 
None

>  <distance_score>  (39) 
0.78153

>  <csv_name>  (39) 
RdRp_knitwork_primer_grip_n_pocket_pure_split1800_batch008.csv

>  <inchikey>  (39) 
KSJKSHACFSYXRS-VIFPVBQESA-N

>  <SLURM_JOB_NAME>  (39) 
BulkDock.place:Flavi_NS5_RdRp:RdRp_knitwork_primer_grip_n_pocket_pure_split1800_batch008

>  <SLURM_JOB_ID>  (39) 
217042

>  <name>  (39) 
KSJKSHACFSYXRS-VIFPVBQESA-N

$$$$
62308
     RDKit          3D

 14 15  0  0  0  0  0  0  0  0999 V2000
  -16.1408  -40.8713  -21.4703 O   0  0  0  0  0  0  0  0  0  0  0  0
  -15.0201  -41.4678  -22.1528 C   0  0  2  0  0  0  0  0  0  0  0  0
  -15.2121  -43.0014  -22.1361 C   0  0  0  0  0  0  0  0  0  0  0  0
  -16.5979  -43.3643  -22.5247 N   0  0  0  0  0  0  0  0  0  0  0  0
  -16.8605  -44.8013  -22.4364 C   0  0  0  0  0  0  0  0  0  0  0  0
  -17.2303  -45.2311  -21.0654 C   0  0  0  0  0  0  0  0  0  0  0  0
  -18.4481  -45.4728  -20.4626 C   0  0  0  0  0  0  0  0  0  0  0  0
  -18.1314  -45.9240  -19.1680 C   0  0  0  0  0  0  0  0  0  0  0  0
  -16.8152  -45.9597  -18.9544 N   0  0  0  0  0  0  0  0  0  0  0  0
  -16.2933  -45.5243  -20.1114 N   0  0  0  0  0  0  0  0  0  0  0  0
  -13.7613  -40.9983  -21.4538 C   0  0  0  0  0  0  0  0  0  0  0  0
  -13.5469  -39.6338  -22.0715 C   0  0  0  0  0  0  0  0  0  0  0  0
  -13.9728  -39.7272  -23.4335 O   0  0  0  0  0  0  0  0  0  0  0  0
  -14.8731  -40.8526  -23.5473 C   0  0  0  0  0  0  0  0  0  0  0  0
  2  1  1  1
  2  3  1  0
  3  4  1  0
  4  5  1  0
  5  6  1  0
  6  7  2  0
  7  8  1  0
  8  9  2  0
  9 10  1  0
  2 11  1  0
 11 12  1  0
 12 13  1  0
 13 14  1  0
 14  2  1  0
 10  6  1  0
M  END
>  <fragmenstein_mode>  (40) 
expansion

>  <original SMILES>  (40) 
O[C@]1(CNCc2ccn[nH]2)CCOC1

>  <fragmenstein_outcome>  (40) 
acceptable

>  <energy_score>  (40) 
-23.505711

>  <tags>  (40) 
['Fragmenstein placed']

>  <original ID>  (40) 
KSJKSHACFSYXRS-VIFPVBQESA-N

>  <alias>  (40) 
None

>  <ref_mols>  (40) 
d0160a,d0254a

>  <HIPPO Pose ID>  (40) 
62308

>  <ref_pdb>  (40) 
d0254a

>  <scratch_subdir>  (40) 
/opt/xchem-fragalysis-2/maxwin/BulkDock/SCRATCH/217042/C10197-P26

>  <HIPPO Compound ID>  (40) 
10197

>  <exports>  (40) 
['/opt/xchem-fragalysis-2/maxwin/BulkDock/OUTPUTS/RdRp_knitwork_primer_grip_n_pocket_pure_split1800_batch008_217042.sdf']

>  <fragmenstein_runtime>  (40) 
2.108268

>  <fragmenstein_error>  (40) 
None

>  <distance_score>  (40) 
0.763364

>  <csv_name>  (40) 
RdRp_knitwork_primer_grip_n_pocket_pure_split1800_batch008.csv

>  <inchikey>  (40) 
KSJKSHACFSYXRS-VIFPVBQESA-N

>  <SLURM_JOB_NAME>  (40) 
BulkDock.place:Flavi_NS5_RdRp:RdRp_knitwork_primer_grip_n_pocket_pure_split1800_batch008

>  <SLURM_JOB_ID>  (40) 
217042

>  <name>  (40) 
KSJKSHACFSYXRS-VIFPVBQESA-N

$$$$
62309
     RDKit          3D

 14 15  0  0  0  0  0  0  0  0999 V2000
  -16.4962  -40.9472  -21.8058 C   0  0  0  0  0  0  0  0  0  0  0  0
  -15.1754  -41.5723  -22.2905 C   0  0  2  0  0  0  0  0  0  0  0  0
  -15.1655  -43.1080  -22.1005 C   0  0  0  0  0  0  0  0  0  0  0  0
  -16.1218  -43.8945  -22.8844 N   0  0  0  0  0  0  0  0  0  0  0  0
  -17.4145  -44.2020  -22.2797 C   0  0  0  0  0  0  0  0  0  0  0  0
  -17.3947  -45.0764  -21.0774 C   0  0  0  0  0  0  0  0  0  0  0  0
  -18.3931  -45.3797  -20.1729 C   0  0  0  0  0  0  0  0  0  0  0  0
  -17.7840  -46.2184  -19.2232 C   0  0  0  0  0  0  0  0  0  0  0  0
  -16.5037  -46.4621  -19.5118 N   0  0  0  0  0  0  0  0  0  0  0  0
  -16.2988  -45.7658  -20.6417 N   0  0  0  0  0  0  0  0  0  0  0  0
  -13.9992  -40.9374  -21.5437 C   0  0  0  0  0  0  0  0  0  0  0  0
  -13.7477  -39.6494  -22.2967 C   0  0  0  0  0  0  0  0  0  0  0  0
  -14.2273  -39.8387  -23.6294 O   0  0  0  0  0  0  0  0  0  0  0  0
  -14.8781  -41.1217  -23.7196 C   0  0  0  0  0  0  0  0  0  0  0  0
  2  1  1  1
  2  3  1  0
  3  4  1  0
  4  5  1  0
  5  6  1  0
  6  7  2  0
  7  8  1  0
  8  9  2  0
  9 10  1  0
  2 11  1  0
 11 12  1  0
 12 13  1  0
 13 14  1  0
 14  2  1  0
 10  6  1  0
M  END
>  <fragmenstein_mode>  (41) 
expansion

>  <original SMILES>  (41) 
C[C@]1(CNCc2ccn[nH]2)CCOC1

>  <fragmenstein_outcome>  (41) 
acceptable

>  <energy_score>  (41) 
-20.990241

>  <tags>  (41) 
['Fragmenstein placed']

>  <original ID>  (41) 
GKONBCCMPJCIRH-SNVBAGLBSA-N

>  <alias>  (41) 
None

>  <ref_mols>  (41) 
d0160a,d0254a

>  <HIPPO Pose ID>  (41) 
62309

>  <ref_pdb>  (41) 
d0160a

>  <scratch_subdir>  (41) 
/opt/xchem-fragalysis-2/maxwin/BulkDock/SCRATCH/217042/C10237-P12

>  <HIPPO Compound ID>  (41) 
10237

>  <exports>  (41) 
['/opt/xchem-fragalysis-2/maxwin/BulkDock/OUTPUTS/RdRp_knitwork_primer_grip_n_pocket_pure_split1800_batch008_217042.sdf']

>  <fragmenstein_runtime>  (41) 
2.66049

>  <fragmenstein_error>  (41) 
None

>  <distance_score>  (41) 
0.956938

>  <csv_name>  (41) 
RdRp_knitwork_primer_grip_n_pocket_pure_split1800_batch008.csv

>  <inchikey>  (41) 
GKONBCCMPJCIRH-SNVBAGLBSA-N

>  <SLURM_JOB_NAME>  (41) 
BulkDock.place:Flavi_NS5_RdRp:RdRp_knitwork_primer_grip_n_pocket_pure_split1800_batch008

>  <SLURM_JOB_ID>  (41) 
217042

>  <name>  (41) 
GKONBCCMPJCIRH-SNVBAGLBSA-N

$$$$
62312
     RDKit          3D

 14 15  0  0  0  0  0  0  0  0999 V2000
  -16.5088  -40.9063  -21.8674 C   0  0  0  0  0  0  0  0  0  0  0  0
  -15.1878  -41.5478  -22.3296 C   0  0  2  0  0  0  0  0  0  0  0  0
  -15.1891  -43.0802  -22.1110 C   0  0  0  0  0  0  0  0  0  0  0  0
  -16.1534  -43.8672  -22.8840 N   0  0  0  0  0  0  0  0  0  0  0  0
  -17.4316  -44.1788  -22.2545 C   0  0  0  0  0  0  0  0  0  0  0  0
  -17.3867  -45.0900  -21.0801 C   0  0  0  0  0  0  0  0  0  0  0  0
  -18.3730  -45.4448  -20.1806 C   0  0  0  0  0  0  0  0  0  0  0  0
  -17.7397  -46.2985  -19.2603 C   0  0  0  0  0  0  0  0  0  0  0  0
  -16.4534  -46.4954  -19.5575 N   0  0  0  0  0  0  0  0  0  0  0  0
  -16.2712  -45.7658  -20.6701 N   0  0  0  0  0  0  0  0  0  0  0  0
  -14.0138  -40.9076  -21.5846 C   0  0  0  0  0  0  0  0  0  0  0  0
  -13.7376  -39.6421  -22.3660 C   0  0  0  0  0  0  0  0  0  0  0  0
  -14.1919  -39.8628  -23.7022 O   0  0  0  0  0  0  0  0  0  0  0  0
  -14.8810  -41.1276  -23.7665 C   0  0  0  0  0  0  0  0  0  0  0  0
  2  1  1  1
  2  3  1  0
  3  4  1  0
  4  5  1  0
  5  6  1  0
  6  7  2  0
  7  8  1  0
  8  9  2  0
  9 10  1  0
  2 11  1  0
 11 12  1  0
 12 13  1  0
 13 14  1  0
 14  2  1  0
 10  6  1  0
M  END
>  <fragmenstein_mode>  (42) 
expansion

>  <original SMILES>  (42) 
C[C@]1(CNCc2ccn[nH]2)CCOC1

>  <fragmenstein_outcome>  (42) 
acceptable

>  <energy_score>  (42) 
-21.171702

>  <tags>  (42) 
['Fragmenstein placed']

>  <original ID>  (42) 
GKONBCCMPJCIRH-SNVBAGLBSA-N

>  <alias>  (42) 
None

>  <ref_mols>  (42) 
d0160a,d0254a

>  <HIPPO Pose ID>  (42) 
62312

>  <ref_pdb>  (42) 
d0254a

>  <scratch_subdir>  (42) 
/opt/xchem-fragalysis-2/maxwin/BulkDock/SCRATCH/217042/C10237-P26

>  <HIPPO Compound ID>  (42) 
10237

>  <exports>  (42) 
['/opt/xchem-fragalysis-2/maxwin/BulkDock/OUTPUTS/RdRp_knitwork_primer_grip_n_pocket_pure_split1800_batch008_217042.sdf']

>  <fragmenstein_runtime>  (42) 
2.800147

>  <fragmenstein_error>  (42) 
None

>  <distance_score>  (42) 
0.964328

>  <csv_name>  (42) 
RdRp_knitwork_primer_grip_n_pocket_pure_split1800_batch008.csv

>  <inchikey>  (42) 
GKONBCCMPJCIRH-SNVBAGLBSA-N

>  <SLURM_JOB_NAME>  (42) 
BulkDock.place:Flavi_NS5_RdRp:RdRp_knitwork_primer_grip_n_pocket_pure_split1800_batch008

>  <SLURM_JOB_ID>  (42) 
217042

>  <name>  (42) 
GKONBCCMPJCIRH-SNVBAGLBSA-N

$$$$
62315
     RDKit          3D

 14 15  0  0  0  0  0  0  0  0999 V2000
  -16.1280  -41.2092  -24.7030 O   0  0  0  0  0  0  0  0  0  0  0  0
  -14.9519  -41.1149  -23.9219 C   0  0  1  0  0  0  0  0  0  0  0  0
  -14.4271  -39.6960  -23.8020 C   0  0  0  0  0  0  0  0  0  0  0  0
  -13.5668  -39.6811  -22.6509 O   0  0  0  0  0  0  0  0  0  0  0  0
  -13.9350  -40.8073  -21.8258 C   0  0  0  0  0  0  0  0  0  0  0  0
  -15.1672  -41.4454  -22.4560 C   0  0  2  0  0  0  0  0  0  0  0  0
  -15.3273  -42.9339  -22.1340 C   0  0  0  0  0  0  0  0  0  0  0  0
  -16.6707  -43.3899  -22.5172 N   0  0  0  0  0  0  0  0  0  0  0  0
  -16.8711  -44.8275  -22.4146 C   0  0  0  0  0  0  0  0  0  0  0  0
  -17.2053  -45.2497  -21.0327 C   0  0  0  0  0  0  0  0  0  0  0  0
  -18.4082  -45.4872  -20.4005 C   0  0  0  0  0  0  0  0  0  0  0  0
  -18.0601  -45.9144  -19.1066 C   0  0  0  0  0  0  0  0  0  0  0  0
  -16.7388  -45.9426  -18.9212 N   0  0  0  0  0  0  0  0  0  0  0  0
  -16.2460  -45.5078  -20.0928 N   0  0  0  0  0  0  0  0  0  0  0  0
  2  1  1  6
  2  3  1  0
  3  4  1  0
  4  5  1  0
  5  6  1  0
  6  7  1  6
  7  8  1  0
  8  9  1  0
  9 10  1  0
 10 11  2  0
 11 12  1  0
 12 13  2  0
 13 14  1  0
  6  2  1  0
 14 10  1  0
M  END
>  <fragmenstein_mode>  (43) 
expansion

>  <original SMILES>  (43) 
O[C@H]1COC[C@@H]1CNCc1ccn[nH]1

>  <fragmenstein_outcome>  (43) 
acceptable

>  <energy_score>  (43) 
-32.824035

>  <tags>  (43) 
['Fragmenstein placed']

>  <original ID>  (43) 
DFFAHRILMAZSJI-CBAPKCEASA-N

>  <alias>  (43) 
None

>  <ref_mols>  (43) 
d0160a,d0254a

>  <HIPPO Pose ID>  (43) 
62315

>  <ref_pdb>  (43) 
d0160a

>  <scratch_subdir>  (43) 
/opt/xchem-fragalysis-2/maxwin/BulkDock/SCRATCH/217042/C10275-P12

>  <HIPPO Compound ID>  (43) 
10275

>  <exports>  (43) 
['/opt/xchem-fragalysis-2/maxwin/BulkDock/OUTPUTS/RdRp_knitwork_primer_grip_n_pocket_pure_split1800_batch008_217042.sdf']

>  <fragmenstein_runtime>  (43) 
1.929879

>  <fragmenstein_error>  (43) 
None

>  <distance_score>  (43) 
0.890602

>  <csv_name>  (43) 
RdRp_knitwork_primer_grip_n_pocket_pure_split1800_batch008.csv

>  <inchikey>  (43) 
DFFAHRILMAZSJI-CBAPKCEASA-N

>  <SLURM_JOB_NAME>  (43) 
BulkDock.place:Flavi_NS5_RdRp:RdRp_knitwork_primer_grip_n_pocket_pure_split1800_batch008

>  <SLURM_JOB_ID>  (43) 
217042

>  <name>  (43) 
DFFAHRILMAZSJI-CBAPKCEASA-N

$$$$
62317
     RDKit          3D

 14 15  0  0  0  0  0  0  0  0999 V2000
  -16.1126  -41.2166  -24.7302 O   0  0  0  0  0  0  0  0  0  0  0  0
  -14.9418  -41.1419  -23.9413 C   0  0  1  0  0  0  0  0  0  0  0  0
  -14.3827  -39.7352  -23.8297 C   0  0  0  0  0  0  0  0  0  0  0  0
  -13.5441  -39.7246  -22.6630 O   0  0  0  0  0  0  0  0  0  0  0  0
  -13.9505  -40.8317  -21.8306 C   0  0  0  0  0  0  0  0  0  0  0  0
  -15.1816  -41.4572  -22.4756 C   0  0  2  0  0  0  0  0  0  0  0  0
  -15.3640  -42.9427  -22.1462 C   0  0  0  0  0  0  0  0  0  0  0  0
  -16.7170  -43.3840  -22.5143 N   0  0  0  0  0  0  0  0  0  0  0  0
  -16.9260  -44.8225  -22.4435 C   0  0  0  0  0  0  0  0  0  0  0  0
  -17.2312  -45.2783  -21.0649 C   0  0  0  0  0  0  0  0  0  0  0  0
  -18.4148  -45.5837  -20.4252 C   0  0  0  0  0  0  0  0  0  0  0  0
  -18.0344  -46.0053  -19.1380 C   0  0  0  0  0  0  0  0  0  0  0  0
  -16.7119  -45.9675  -18.9640 N   0  0  0  0  0  0  0  0  0  0  0  0
  -16.2510  -45.5086  -20.1390 N   0  0  0  0  0  0  0  0  0  0  0  0
  2  1  1  6
  2  3  1  0
  3  4  1  0
  4  5  1  0
  5  6  1  0
  6  7  1  6
  7  8  1  0
  8  9  1  0
  9 10  1  0
 10 11  2  0
 11 12  1  0
 12 13  2  0
 13 14  1  0
  6  2  1  0
 14 10  1  0
M  END
>  <fragmenstein_mode>  (44) 
expansion

>  <original SMILES>  (44) 
O[C@H]1COC[C@@H]1CNCc1ccn[nH]1

>  <fragmenstein_outcome>  (44) 
acceptable

>  <energy_score>  (44) 
-32.711505

>  <tags>  (44) 
['Fragmenstein placed']

>  <original ID>  (44) 
DFFAHRILMAZSJI-CBAPKCEASA-N

>  <alias>  (44) 
None

>  <ref_mols>  (44) 
d0160a,d0254a

>  <HIPPO Pose ID>  (44) 
62317

>  <ref_pdb>  (44) 
d0254a

>  <scratch_subdir>  (44) 
/opt/xchem-fragalysis-2/maxwin/BulkDock/SCRATCH/217042/C10275-P26

>  <HIPPO Compound ID>  (44) 
10275

>  <exports>  (44) 
['/opt/xchem-fragalysis-2/maxwin/BulkDock/OUTPUTS/RdRp_knitwork_primer_grip_n_pocket_pure_split1800_batch008_217042.sdf']

>  <fragmenstein_runtime>  (44) 
1.996471

>  <fragmenstein_error>  (44) 
None

>  <distance_score>  (44) 
0.879118

>  <csv_name>  (44) 
RdRp_knitwork_primer_grip_n_pocket_pure_split1800_batch008.csv

>  <inchikey>  (44) 
DFFAHRILMAZSJI-CBAPKCEASA-N

>  <SLURM_JOB_NAME>  (44) 
BulkDock.place:Flavi_NS5_RdRp:RdRp_knitwork_primer_grip_n_pocket_pure_split1800_batch008

>  <SLURM_JOB_ID>  (44) 
217042

>  <name>  (44) 
DFFAHRILMAZSJI-CBAPKCEASA-N

$$$$
62547
     RDKit          3D

 23 25  0  0  0  0  0  0  0  0999 V2000
  -14.9269  -40.3902  -17.5223 O   0  0  0  0  0  0  0  0  0  0  0  0
  -14.2923  -40.0276  -18.4308 C   0  0  0  0  0  0  0  0  0  0  0  0
  -14.4671  -38.6549  -19.0717 C   0  0  0  0  0  0  0  0  0  0  0  0
  -15.2096  -38.7660  -20.4075 C   0  0  0  0  0  0  0  0  0  0  0  0
  -15.0474  -37.5315  -21.2976 C   0  0  0  0  0  0  0  0  0  0  0  0
  -13.6671  -37.2690  -21.6752 N   0  0  0  0  0  0  0  0  0  0  0  0
  -12.9813  -36.1154  -21.3986 C   0  0  0  0  0  0  0  0  0  0  0  0
  -11.6838  -36.2778  -21.8286 C   0  0  0  0  0  0  0  0  0  0  0  0
  -11.5830  -37.5745  -22.3828 C   0  0  0  0  0  0  0  0  0  0  0  0
  -12.8301  -38.1549  -22.3043 C   0  0  0  0  0  0  0  0  0  0  0  0
  -13.1918  -40.7569  -19.2412 N   0  0  0  0  0  0  0  0  0  0  0  0
  -12.7147  -42.1126  -19.1598 C   0  0  0  0  0  0  0  0  0  0  0  0
  -13.6940  -43.0634  -19.7816 C   0  0  0  0  0  0  0  0  0  0  0  0
  -14.1026  -42.9032  -21.1046 C   0  0  0  0  0  0  0  0  0  0  0  0
  -15.0812  -43.7336  -21.6361 C   0  0  0  0  0  0  0  0  0  0  0  0
  -15.6081  -44.7414  -20.8340 C   0  0  0  0  0  0  0  0  0  0  0  0
  -16.6686  -45.5413  -21.3299 N   0  0  0  0  0  0  0  0  0  0  0  0
  -17.1594  -46.6957  -20.7603 C   0  0  0  0  0  0  0  0  0  0  0  0
  -18.1377  -47.1384  -21.6178 C   0  0  0  0  0  0  0  0  0  0  0  0
  -18.3140  -46.2694  -22.6561 N   0  0  0  0  0  0  0  0  0  0  0  0
  -17.4323  -45.3195  -22.4513 C   0  0  0  0  0  0  0  0  0  0  0  0
  -15.1632  -44.9869  -19.5730 N   0  0  0  0  0  0  0  0  0  0  0  0
  -14.2482  -44.1211  -19.0711 C   0  0  0  0  0  0  0  0  0  0  0  0
  1  2  2  0
  2  3  1  0
  3  4  1  0
  4  5  1  0
  5  6  1  0
  6  7  1  0
  7  8  2  0
  8  9  1  0
  9 10  2  0
  2 11  1  0
 11 12  1  0
 12 13  1  0
 13 14  2  0
 14 15  1  0
 15 16  2  0
 16 17  1  0
 17 18  1  0
 18 19  2  0
 19 20  1  0
 20 21  2  0
 16 22  1  0
 22 23  2  0
 10  6  1  0
 23 13  1  0
 21 17  1  0
M  END
>  <fragmenstein_mode>  (45) 
expansion

>  <original SMILES>  (45) 
O=C(CCCn1cccc1)NCc1ccc(-n2ccnc2)nc1

>  <fragmenstein_outcome>  (45) 
acceptable

>  <energy_score>  (45) 
-45.149604

>  <tags>  (45) 
['Fragmenstein placed']

>  <original ID>  (45) 
GNIAMKSLLNSZRD-UHFFFAOYSA-N

>  <alias>  (45) 
None

>  <ref_mols>  (45) 
d0472a,z0103a

>  <HIPPO Pose ID>  (45) 
62547

>  <ref_pdb>  (45) 
d0472a

>  <scratch_subdir>  (45) 
/opt/xchem-fragalysis-2/maxwin/BulkDock/SCRATCH/217041/C22771-P42

>  <HIPPO Compound ID>  (45) 
22771

>  <exports>  (45) 
['/opt/xchem-fragalysis-2/maxwin/BulkDock/OUTPUTS/RdRp_knitwork_primer_grip_n_pocket_pure_split1800_batch007_217041.sdf']

>  <fragmenstein_runtime>  (45) 
7.345656

>  <fragmenstein_error>  (45) 
None

>  <distance_score>  (45) 
0.995421

>  <csv_name>  (45) 
RdRp_knitwork_primer_grip_n_pocket_pure_split1800_batch007.csv

>  <inchikey>  (45) 
GNIAMKSLLNSZRD-UHFFFAOYSA-N

>  <SLURM_JOB_NAME>  (45) 
BulkDock.place:Flavi_NS5_RdRp:RdRp_knitwork_primer_grip_n_pocket_pure_split1800_batch007

>  <SLURM_JOB_ID>  (45) 
217041

>  <name>  (45) 
GNIAMKSLLNSZRD-UHFFFAOYSA-N

$$$$
62786
     RDKit          3D

 12 13  0  0  0  0  0  0  0  0999 V2000
  -13.0144  -41.1475  -21.1141 C   0  0  0  0  0  0  0  0  0  0  0  0
  -13.7827  -41.6290  -19.8979 C   0  0  0  0  0  0  0  0  0  0  0  0
  -14.3073  -42.9715  -20.0379 N   0  0  0  0  0  0  0  0  0  0  0  0
  -13.9794  -44.0487  -19.2597 C   0  0  0  0  0  0  0  0  0  0  0  0
  -14.7588  -45.0825  -19.5002 N   0  0  0  0  0  0  0  0  0  0  0  0
  -15.5916  -44.6519  -20.5087 C   0  0  0  0  0  0  0  0  0  0  0  0
  -16.5758  -45.5107  -21.0572 N   0  0  0  0  0  0  0  0  0  0  0  0
  -16.8340  -46.8072  -20.6627 C   0  0  0  0  0  0  0  0  0  0  0  0
  -17.7970  -47.3302  -21.4950 C   0  0  0  0  0  0  0  0  0  0  0  0
  -18.1799  -46.3143  -22.3961 C   0  0  0  0  0  0  0  0  0  0  0  0
  -17.4314  -45.2025  -22.0939 C   0  0  0  0  0  0  0  0  0  0  0  0
  -15.3247  -43.3505  -20.8658 C   0  0  0  0  0  0  0  0  0  0  0  0
  1  2  1  0
  2  3  1  0
  3  4  1  0
  4  5  2  0
  5  6  1  0
  6  7  1  0
  7  8  1  0
  8  9  2  0
  9 10  1  0
 10 11  2  0
  6 12  2  0
 12  3  1  0
 11  7  1  0
M  END
>  <fragmenstein_mode>  (46) 
expansion

>  <original SMILES>  (46) 
CCn1cnc(-n2cccc2)c1

>  <fragmenstein_outcome>  (46) 
acceptable

>  <energy_score>  (46) 
-15.934518

>  <tags>  (46) 
['Fragmenstein placed']

>  <original ID>  (46) 
BSEAPSYNNFLCLD-UHFFFAOYSA-N

>  <alias>  (46) 
None

>  <ref_mols>  (46) 
d0472a,z0103a

>  <HIPPO Pose ID>  (46) 
62786

>  <ref_pdb>  (46) 
d0472a

>  <scratch_subdir>  (46) 
/opt/xchem-fragalysis-2/maxwin/BulkDock/SCRATCH/217041/C23216-P42

>  <HIPPO Compound ID>  (46) 
23216

>  <exports>  (46) 
['/opt/xchem-fragalysis-2/maxwin/BulkDock/OUTPUTS/RdRp_knitwork_primer_grip_n_pocket_pure_split1800_batch007_217041.sdf']

>  <fragmenstein_runtime>  (46) 
1.930211

>  <fragmenstein_error>  (46) 
None

>  <distance_score>  (46) 
0.930045

>  <csv_name>  (46) 
RdRp_knitwork_primer_grip_n_pocket_pure_split1800_batch007.csv

>  <inchikey>  (46) 
BSEAPSYNNFLCLD-UHFFFAOYSA-N

>  <SLURM_JOB_NAME>  (46) 
BulkDock.place:Flavi_NS5_RdRp:RdRp_knitwork_primer_grip_n_pocket_pure_split1800_batch007

>  <SLURM_JOB_ID>  (46) 
217041

>  <name>  (46) 
BSEAPSYNNFLCLD-UHFFFAOYSA-N

$$$$
62828
     RDKit          3D

 14 15  0  0  0  0  0  0  0  0999 V2000
  -14.4875  -43.2314  -21.0892 O   0  0  0  0  0  0  0  0  0  0  0  0
  -15.2852  -42.7501  -21.7915 C   0  0  0  0  0  0  0  0  0  0  0  0
  -16.5553  -43.3632  -22.4385 N   0  0  0  0  0  0  0  0  0  0  0  0
  -17.0479  -44.7135  -22.4294 C   0  0  0  0  0  0  0  0  0  0  0  0
  -17.3409  -45.1541  -21.0483 C   0  0  0  0  0  0  0  0  0  0  0  0
  -18.4824  -45.6335  -20.4414 C   0  0  0  0  0  0  0  0  0  0  0  0
  -18.0913  -45.9505  -19.1279 C   0  0  0  0  0  0  0  0  0  0  0  0
  -16.8046  -45.6830  -18.9047 N   0  0  0  0  0  0  0  0  0  0  0  0
  -16.3676  -45.1962  -20.0800 N   0  0  0  0  0  0  0  0  0  0  0  0
  -15.2271  -41.2816  -22.2247 C   0  0  2  0  0  0  0  0  0  0  0  0
  -15.1203  -41.0674  -23.7208 C   0  0  0  0  0  0  0  0  0  0  0  0
  -14.5024  -39.6921  -23.8069 C   0  0  0  0  0  0  0  0  0  0  0  0
  -13.6142  -39.5690  -22.6917 O   0  0  0  0  0  0  0  0  0  0  0  0
  -13.9664  -40.5799  -21.7264 C   0  0  0  0  0  0  0  0  0  0  0  0
  1  2  2  0
  2  3  1  0
  3  4  1  0
  4  5  1  0
  5  6  2  0
  6  7  1  0
  7  8  2  0
  8  9  1  0
 10  2  1  6
 10 11  1  0
 11 12  1  0
 12 13  1  0
 13 14  1  0
  9  5  1  0
 14 10  1  0
M  END
>  <fragmenstein_mode>  (47) 
expansion

>  <original SMILES>  (47) 
O=C(NCc1ccn[nH]1)[C@@H]1CCOC1

>  <fragmenstein_outcome>  (47) 
acceptable

>  <energy_score>  (47) 
-16.605696

>  <tags>  (47) 
['Fragmenstein placed']

>  <original ID>  (47) 
LQTRAFGCFHVYHF-SSDOTTSWSA-N

>  <alias>  (47) 
None

>  <ref_mols>  (47) 
d0160a,d0254a

>  <HIPPO Pose ID>  (47) 
62828

>  <ref_pdb>  (47) 
d0254a

>  <scratch_subdir>  (47) 
/opt/xchem-fragalysis-2/maxwin/BulkDock/SCRATCH/217042/C12841-P26

>  <HIPPO Compound ID>  (47) 
12841

>  <exports>  (47) 
['/opt/xchem-fragalysis-2/maxwin/BulkDock/OUTPUTS/RdRp_knitwork_primer_grip_n_pocket_pure_split1800_batch008_217042.sdf']

>  <fragmenstein_runtime>  (47) 
2.270942

>  <fragmenstein_error>  (47) 
None

>  <distance_score>  (47) 
0.953475

>  <csv_name>  (47) 
RdRp_knitwork_primer_grip_n_pocket_pure_split1800_batch008.csv

>  <inchikey>  (47) 
LQTRAFGCFHVYHF-SSDOTTSWSA-N

>  <SLURM_JOB_NAME>  (47) 
BulkDock.place:Flavi_NS5_RdRp:RdRp_knitwork_primer_grip_n_pocket_pure_split1800_batch008

>  <SLURM_JOB_ID>  (47) 
217042

>  <name>  (47) 
LQTRAFGCFHVYHF-SSDOTTSWSA-N

$$$$
62887
     RDKit          3D

 19 20  0  0  0  0  0  0  0  0999 V2000
  -15.7719  -42.3900  -20.5930 C   0  0  0  0  0  0  0  0  0  0  0  0
  -15.2370  -42.4225  -22.0443 C   0  0  0  0  0  0  0  0  0  0  0  0
  -13.9420  -43.2532  -22.0330 C   0  0  0  0  0  0  0  0  0  0  0  0
  -16.2350  -43.1258  -22.9991 C   0  0  0  0  0  0  0  0  0  0  0  0
  -16.5131  -44.4944  -22.5545 N   0  0  0  0  0  0  0  0  0  0  0  0
  -18.0930  -44.8562  -22.1404 S   0  0  0  0  0  0  0  0  0  0  0  0
  -18.4871  -45.9183  -23.0282 O   0  0  0  0  0  0  0  0  0  0  0  0
  -18.8620  -43.6495  -21.9513 O   0  0  0  0  0  0  0  0  0  0  0  0
  -17.9745  -45.5562  -20.5520 C   0  0  0  0  0  0  0  0  0  0  0  0
  -18.8657  -45.8064  -19.5309 C   0  0  0  0  0  0  0  0  0  0  0  0
  -18.0817  -46.3034  -18.4760 C   0  0  0  0  0  0  0  0  0  0  0  0
  -16.7884  -46.3789  -18.7975 N   0  0  0  0  0  0  0  0  0  0  0  0
  -16.7551  -45.9179  -20.0572 N   0  0  0  0  0  0  0  0  0  0  0  0
  -15.0495  -40.9531  -22.5479 C   0  0  2  0  0  0  0  0  0  0  0  0
  -16.2039  -40.1747  -22.1504 O   0  0  0  0  0  0  0  0  0  0  0  0
  -14.9114  -40.7968  -24.0488 C   0  0  0  0  0  0  0  0  0  0  0  0
  -14.3693  -39.3991  -24.1602 C   0  0  0  0  0  0  0  0  0  0  0  0
  -13.4688  -39.2137  -23.0598 O   0  0  0  0  0  0  0  0  0  0  0  0
  -13.8133  -40.1884  -22.0439 C   0  0  0  0  0  0  0  0  0  0  0  0
  1  2  1  0
  2  3  1  0
  2  4  1  0
  4  5  1  0
  5  6  1  0
  6  7  2  0
  6  8  2  0
  6  9  1  0
  9 10  2  0
 10 11  1  0
 11 12  2  0
 12 13  1  0
  2 14  1  0
 14 15  1  1
 14 16  1  0
 16 17  1  0
 17 18  1  0
 18 19  1  0
 13  9  1  0
 19 14  1  0
M  END
>  <fragmenstein_mode>  (48) 
expansion

>  <original SMILES>  (48) 
CC(C)(CNS(=O)(=O)c1ccn[nH]1)[C@]1(O)CCOC1

>  <fragmenstein_outcome>  (48) 
acceptable

>  <energy_score>  (48) 
-46.844262

>  <tags>  (48) 
['Fragmenstein placed']

>  <original ID>  (48) 
JECYRRKSRNPZRN-NSHDSACASA-N

>  <alias>  (48) 
None

>  <ref_mols>  (48) 
d0160a,d0254a

>  <HIPPO Pose ID>  (48) 
62887

>  <ref_pdb>  (48) 
d0160a

>  <scratch_subdir>  (48) 
/opt/xchem-fragalysis-2/maxwin/BulkDock/SCRATCH/217042/C13262-P12

>  <HIPPO Compound ID>  (48) 
13262

>  <exports>  (48) 
['/opt/xchem-fragalysis-2/maxwin/BulkDock/OUTPUTS/RdRp_knitwork_primer_grip_n_pocket_pure_split1800_batch008_217042.sdf']

>  <fragmenstein_runtime>  (48) 
3.190005

>  <fragmenstein_error>  (48) 
None

>  <distance_score>  (48) 
0.914717

>  <csv_name>  (48) 
RdRp_knitwork_primer_grip_n_pocket_pure_split1800_batch008.csv

>  <inchikey>  (48) 
JECYRRKSRNPZRN-NSHDSACASA-N

>  <SLURM_JOB_NAME>  (48) 
BulkDock.place:Flavi_NS5_RdRp:RdRp_knitwork_primer_grip_n_pocket_pure_split1800_batch008

>  <SLURM_JOB_ID>  (48) 
217042

>  <name>  (48) 
JECYRRKSRNPZRN-NSHDSACASA-N

$$$$
62890
     RDKit          3D

 19 20  0  0  0  0  0  0  0  0999 V2000
  -15.6096  -42.4465  -20.5755 C   0  0  0  0  0  0  0  0  0  0  0  0
  -15.3241  -42.4324  -22.0964 C   0  0  0  0  0  0  0  0  0  0  0  0
  -14.1123  -43.3499  -22.3472 C   0  0  0  0  0  0  0  0  0  0  0  0
  -16.5548  -42.9771  -22.8661 C   0  0  0  0  0  0  0  0  0  0  0  0
  -16.7297  -44.4103  -22.6274 N   0  0  0  0  0  0  0  0  0  0  0  0
  -18.2431  -44.9778  -22.2142 S   0  0  0  0  0  0  0  0  0  0  0  0
  -18.4635  -46.1194  -23.0623 O   0  0  0  0  0  0  0  0  0  0  0  0
  -19.2038  -43.9069  -22.0784 O   0  0  0  0  0  0  0  0  0  0  0  0
  -18.0488  -45.6170  -20.6067 C   0  0  0  0  0  0  0  0  0  0  0  0
  -18.8988  -45.8873  -19.5553 C   0  0  0  0  0  0  0  0  0  0  0  0
  -18.0641  -46.3341  -18.5169 C   0  0  0  0  0  0  0  0  0  0  0  0
  -16.7780  -46.3548  -18.8739 N   0  0  0  0  0  0  0  0  0  0  0  0
  -16.8027  -45.9321  -20.1476 N   0  0  0  0  0  0  0  0  0  0  0  0
  -15.0901  -40.9577  -22.5583 C   0  0  2  0  0  0  0  0  0  0  0  0
  -16.2162  -40.1566  -22.1284 O   0  0  0  0  0  0  0  0  0  0  0  0
  -14.9421  -40.7721  -24.0566 C   0  0  0  0  0  0  0  0  0  0  0  0
  -14.2989  -39.4162  -24.1369 C   0  0  0  0  0  0  0  0  0  0  0  0
  -13.3975  -39.3120  -23.0295 O   0  0  0  0  0  0  0  0  0  0  0  0
  -13.8267  -40.2596  -22.0235 C   0  0  0  0  0  0  0  0  0  0  0  0
  1  2  1  0
  2  3  1  0
  2  4  1  0
  4  5  1  0
  5  6  1  0
  6  7  2  0
  6  8  2  0
  6  9  1  0
  9 10  2  0
 10 11  1  0
 11 12  2  0
 12 13  1  0
  2 14  1  0
 14 15  1  1
 14 16  1  0
 16 17  1  0
 17 18  1  0
 18 19  1  0
 13  9  1  0
 19 14  1  0
M  END
>  <fragmenstein_mode>  (49) 
expansion

>  <original SMILES>  (49) 
CC(C)(CNS(=O)(=O)c1ccn[nH]1)[C@]1(O)CCOC1

>  <fragmenstein_outcome>  (49) 
acceptable

>  <energy_score>  (49) 
-48.890901

>  <tags>  (49) 
['Fragmenstein placed']

>  <original ID>  (49) 
JECYRRKSRNPZRN-NSHDSACASA-N

>  <alias>  (49) 
None

>  <ref_mols>  (49) 
d0160a,d0254a

>  <HIPPO Pose ID>  (49) 
62890

>  <ref_pdb>  (49) 
d0254a

>  <scratch_subdir>  (49) 
/opt/xchem-fragalysis-2/maxwin/BulkDock/SCRATCH/217042/C13262-P26

>  <HIPPO Compound ID>  (49) 
13262

>  <exports>  (49) 
['/opt/xchem-fragalysis-2/maxwin/BulkDock/OUTPUTS/RdRp_knitwork_primer_grip_n_pocket_pure_split1800_batch008_217042.sdf']

>  <fragmenstein_runtime>  (49) 
3.316401

>  <fragmenstein_error>  (49) 
None

>  <distance_score>  (49) 
0.982087

>  <csv_name>  (49) 
RdRp_knitwork_primer_grip_n_pocket_pure_split1800_batch008.csv

>  <inchikey>  (49) 
JECYRRKSRNPZRN-NSHDSACASA-N

>  <SLURM_JOB_NAME>  (49) 
BulkDock.place:Flavi_NS5_RdRp:RdRp_knitwork_primer_grip_n_pocket_pure_split1800_batch008

>  <SLURM_JOB_ID>  (49) 
217042

>  <name>  (49) 
JECYRRKSRNPZRN-NSHDSACASA-N

$$$$
63009
     RDKit          3D

 15 16  0  0  0  0  0  0  0  0999 V2000
  -18.5155  -44.7032  -23.1613 C   0  0  0  0  0  0  0  0  0  0  0  0
  -17.3257  -45.1294  -22.3097 C   0  0  1  0  0  0  0  0  0  0  0  0
  -16.5172  -44.0038  -21.8271 N   0  0  0  0  0  0  0  0  0  0  0  0
  -15.9479  -43.1422  -22.8586 C   0  0  0  0  0  0  0  0  0  0  0  0
  -14.8436  -42.3022  -22.2023 C   0  0  0  0  0  0  0  0  0  0  0  0
  -14.5210  -41.0261  -22.8928 C   0  0  0  0  0  0  0  0  0  0  0  0
  -13.7871  -39.9460  -22.3457 C   0  0  0  0  0  0  0  0  0  0  0  0
  -13.6501  -38.9277  -23.1980 N   0  0  0  0  0  0  0  0  0  0  0  0
  -14.3058  -39.3541  -24.2983 N   0  0  0  0  0  0  0  0  0  0  0  0
  -14.8322  -40.6044  -24.1662 C   0  0  0  0  0  0  0  0  0  0  0  0
  -17.7510  -45.9668  -21.0743 C   0  0  2  0  0  0  0  0  0  0  0  0
  -18.6743  -45.2455  -20.0932 C   0  0  0  0  0  0  0  0  0  0  0  0
  -18.2187  -45.7582  -18.7519 C   0  0  0  0  0  0  0  0  0  0  0  0
  -16.7359  -45.9431  -18.9638 C   0  0  0  0  0  0  0  0  0  0  0  0
  -16.5575  -46.3356  -20.3298 O   0  0  0  0  0  0  0  0  0  0  0  0
  2  1  1  1
  2  3  1  0
  3  4  1  0
  4  5  1  0
  5  6  1  0
  6  7  1  0
  7  8  2  0
  8  9  1  0
  9 10  1  0
  2 11  1  0
 11 12  1  1
 12 13  1  0
 13 14  1  0
 14 15  1  0
 10  6  2  0
 15 11  1  0
M  END
>  <fragmenstein_mode>  (50) 
expansion

>  <original SMILES>  (50) 
C[C@@H](NCCc1cn[nH]c1)[C@@H]1CCCO1

>  <fragmenstein_outcome>  (50) 
acceptable

>  <energy_score>  (50) 
-30.526545

>  <tags>  (50) 
['Fragmenstein placed']

>  <original ID>  (50) 
ARIPUKFPUAZCKV-KOLCDFICSA-N

>  <alias>  (50) 
None

>  <ref_mols>  (50) 
d0160a,d0254a

>  <HIPPO Pose ID>  (50) 
63009

>  <ref_pdb>  (50) 
d0160a

>  <scratch_subdir>  (50) 
/opt/xchem-fragalysis-2/maxwin/BulkDock/SCRATCH/217042/C13648-P12

>  <HIPPO Compound ID>  (50) 
13648

>  <exports>  (50) 
['/opt/xchem-fragalysis-2/maxwin/BulkDock/OUTPUTS/RdRp_knitwork_primer_grip_n_pocket_pure_split1800_batch008_217042.sdf']

>  <fragmenstein_runtime>  (50) 
2.754223

>  <fragmenstein_error>  (50) 
None

>  <distance_score>  (50) 
0.81307

>  <csv_name>  (50) 
RdRp_knitwork_primer_grip_n_pocket_pure_split1800_batch008.csv

>  <inchikey>  (50) 
ARIPUKFPUAZCKV-KOLCDFICSA-N

>  <SLURM_JOB_NAME>  (50) 
BulkDock.place:Flavi_NS5_RdRp:RdRp_knitwork_primer_grip_n_pocket_pure_split1800_batch008

>  <SLURM_JOB_ID>  (50) 
217042

>  <name>  (50) 
ARIPUKFPUAZCKV-KOLCDFICSA-N

$$$$
63011
     RDKit          3D

 15 16  0  0  0  0  0  0  0  0999 V2000
  -18.5223  -44.7602  -23.2070 C   0  0  0  0  0  0  0  0  0  0  0  0
  -17.3289  -45.1507  -22.3424 C   0  0  1  0  0  0  0  0  0  0  0  0
  -16.5724  -43.9981  -21.8391 N   0  0  0  0  0  0  0  0  0  0  0  0
  -15.9912  -43.1312  -22.8605 C   0  0  0  0  0  0  0  0  0  0  0  0
  -14.9230  -42.2637  -22.1808 C   0  0  0  0  0  0  0  0  0  0  0  0
  -14.5482  -41.0256  -22.9131 C   0  0  0  0  0  0  0  0  0  0  0  0
  -13.7855  -39.9503  -22.3961 C   0  0  0  0  0  0  0  0  0  0  0  0
  -13.6033  -38.9702  -23.2842 N   0  0  0  0  0  0  0  0  0  0  0  0
  -14.2563  -39.4172  -24.3770 N   0  0  0  0  0  0  0  0  0  0  0  0
  -14.8290  -40.6415  -24.2053 C   0  0  0  0  0  0  0  0  0  0  0  0
  -17.7433  -46.0114  -21.1200 C   0  0  2  0  0  0  0  0  0  0  0  0
  -18.7136  -45.3360  -20.1527 C   0  0  0  0  0  0  0  0  0  0  0  0
  -18.2972  -45.8931  -18.8167 C   0  0  0  0  0  0  0  0  0  0  0  0
  -16.8011  -46.0215  -18.9759 C   0  0  0  0  0  0  0  0  0  0  0  0
  -16.5522  -46.3353  -20.3518 O   0  0  0  0  0  0  0  0  0  0  0  0
  2  1  1  1
  2  3  1  0
  3  4  1  0
  4  5  1  0
  5  6  1  0
  6  7  1  0
  7  8  2  0
  8  9  1  0
  9 10  1  0
  2 11  1  0
 11 12  1  1
 12 13  1  0
 13 14  1  0
 14 15  1  0
 10  6  2  0
 15 11  1  0
M  END
>  <fragmenstein_mode>  (51) 
expansion

>  <original SMILES>  (51) 
C[C@@H](NCCc1cn[nH]c1)[C@@H]1CCCO1

>  <fragmenstein_outcome>  (51) 
acceptable

>  <energy_score>  (51) 
-31.199039

>  <tags>  (51) 
['Fragmenstein placed']

>  <original ID>  (51) 
ARIPUKFPUAZCKV-KOLCDFICSA-N

>  <alias>  (51) 
None

>  <ref_mols>  (51) 
d0160a,d0254a

>  <HIPPO Pose ID>  (51) 
63011

>  <ref_pdb>  (51) 
d0254a

>  <scratch_subdir>  (51) 
/opt/xchem-fragalysis-2/maxwin/BulkDock/SCRATCH/217042/C13648-P26

>  <HIPPO Compound ID>  (51) 
13648

>  <exports>  (51) 
['/opt/xchem-fragalysis-2/maxwin/BulkDock/OUTPUTS/RdRp_knitwork_primer_grip_n_pocket_pure_split1800_batch008_217042.sdf']

>  <fragmenstein_runtime>  (51) 
2.72719

>  <fragmenstein_error>  (51) 
None

>  <distance_score>  (51) 
0.816504

>  <csv_name>  (51) 
RdRp_knitwork_primer_grip_n_pocket_pure_split1800_batch008.csv

>  <inchikey>  (51) 
ARIPUKFPUAZCKV-KOLCDFICSA-N

>  <SLURM_JOB_NAME>  (51) 
BulkDock.place:Flavi_NS5_RdRp:RdRp_knitwork_primer_grip_n_pocket_pure_split1800_batch008

>  <SLURM_JOB_ID>  (51) 
217042

>  <name>  (51) 
ARIPUKFPUAZCKV-KOLCDFICSA-N

$$$$
63015
     RDKit          3D

 15 16  0  0  0  0  0  0  0  0999 V2000
  -14.5519  -43.4539  -20.4737 C   0  0  0  0  0  0  0  0  0  0  0  0
  -15.5151  -42.9527  -21.5613 C   0  0  2  0  0  0  0  0  0  0  0  0
  -15.8019  -44.0154  -22.5255 N   0  0  0  0  0  0  0  0  0  0  0  0
  -17.0598  -44.7823  -22.4071 C   0  0  2  0  0  0  0  0  0  0  0  0
  -18.2443  -43.9772  -22.9428 C   0  0  0  0  0  0  0  0  0  0  0  0
  -17.4379  -45.5460  -21.1115 C   0  0  2  0  0  0  0  0  0  0  0  0
  -18.0491  -44.7674  -19.9614 C   0  0  0  0  0  0  0  0  0  0  0  0
  -17.8957  -45.7487  -18.8246 C   0  0  0  0  0  0  0  0  0  0  0  0
  -16.5864  -46.4447  -19.1473 C   0  0  0  0  0  0  0  0  0  0  0  0
  -16.3183  -46.2498  -20.5473 O   0  0  0  0  0  0  0  0  0  0  0  0
  -14.9358  -41.7424  -22.2607 C   0  0  0  0  0  0  0  0  0  0  0  0
  -15.1163  -41.2983  -23.5948 C   0  0  0  0  0  0  0  0  0  0  0  0
  -14.5310  -40.1206  -23.8370 N   0  0  0  0  0  0  0  0  0  0  0  0
  -13.9375  -39.8179  -22.6795 N   0  0  0  0  0  0  0  0  0  0  0  0
  -14.1489  -40.7441  -21.7065 C   0  0  0  0  0  0  0  0  0  0  0  0
  2  1  1  1
  2  3  1  0
  3  4  1  0
  4  5  1  1
  4  6  1  0
  6  7  1  1
  7  8  1  0
  8  9  1  0
  9 10  1  0
  2 11  1  0
 11 12  1  0
 12 13  2  0
 13 14  1  0
 14 15  1  0
 10  6  1  0
 15 11  2  0
M  END
>  <fragmenstein_mode>  (52) 
expansion

>  <original SMILES>  (52) 
C[C@H](N[C@H](C)[C@@H]1CCCO1)c1cn[nH]c1

>  <fragmenstein_outcome>  (52) 
acceptable

>  <energy_score>  (52) 
-40.567899

>  <tags>  (52) 
['Fragmenstein placed']

>  <original ID>  (52) 
YOGZHRSNFOZWTM-NGZCFLSTSA-N

>  <alias>  (52) 
None

>  <ref_mols>  (52) 
d0160a,d0254a

>  <HIPPO Pose ID>  (52) 
63015

>  <ref_pdb>  (52) 
d0160a

>  <scratch_subdir>  (52) 
/opt/xchem-fragalysis-2/maxwin/BulkDock/SCRATCH/217042/C13688-P12

>  <HIPPO Compound ID>  (52) 
13688

>  <exports>  (52) 
['/opt/xchem-fragalysis-2/maxwin/BulkDock/OUTPUTS/RdRp_knitwork_primer_grip_n_pocket_pure_split1800_batch008_217042.sdf']

>  <fragmenstein_runtime>  (52) 
3.51064

>  <fragmenstein_error>  (52) 
None

>  <distance_score>  (52) 
0.834605

>  <csv_name>  (52) 
RdRp_knitwork_primer_grip_n_pocket_pure_split1800_batch008.csv

>  <inchikey>  (52) 
YOGZHRSNFOZWTM-NGZCFLSTSA-N

>  <SLURM_JOB_NAME>  (52) 
BulkDock.place:Flavi_NS5_RdRp:RdRp_knitwork_primer_grip_n_pocket_pure_split1800_batch008

>  <SLURM_JOB_ID>  (52) 
217042

>  <name>  (52) 
YOGZHRSNFOZWTM-NGZCFLSTSA-N

$$$$
63019
     RDKit          3D

 15 16  0  0  0  0  0  0  0  0999 V2000
  -15.2416  -43.0045  -20.1293 C   0  0  0  0  0  0  0  0  0  0  0  0
  -15.7909  -42.7162  -21.5355 C   0  0  2  0  0  0  0  0  0  0  0  0
  -15.7676  -43.9000  -22.3873 N   0  0  0  0  0  0  0  0  0  0  0  0
  -16.9439  -44.7907  -22.4474 C   0  0  2  0  0  0  0  0  0  0  0  0
  -18.1434  -44.1338  -23.1324 C   0  0  0  0  0  0  0  0  0  0  0  0
  -17.3759  -45.6088  -21.2029 C   0  0  2  0  0  0  0  0  0  0  0  0
  -18.3062  -44.9431  -20.2041 C   0  0  0  0  0  0  0  0  0  0  0  0
  -18.1185  -45.8113  -18.9834 C   0  0  0  0  0  0  0  0  0  0  0  0
  -16.6800  -46.2833  -19.0918 C   0  0  0  0  0  0  0  0  0  0  0  0
  -16.2438  -46.0666  -20.4430 O   0  0  0  0  0  0  0  0  0  0  0  0
  -14.9968  -41.6086  -22.1964 C   0  0  0  0  0  0  0  0  0  0  0  0
  -15.2902  -40.9278  -23.4066 C   0  0  0  0  0  0  0  0  0  0  0  0
  -14.4694  -39.8971  -23.6391 N   0  0  0  0  0  0  0  0  0  0  0  0
  -13.6154  -39.9384  -22.6117 N   0  0  0  0  0  0  0  0  0  0  0  0
  -13.8729  -40.9441  -21.7321 C   0  0  0  0  0  0  0  0  0  0  0  0
  2  1  1  1
  2  3  1  0
  3  4  1  0
  4  5  1  1
  4  6  1  0
  6  7  1  1
  7  8  1  0
  8  9  1  0
  9 10  1  0
  2 11  1  0
 11 12  1  0
 12 13  2  0
 13 14  1  0
 14 15  1  0
 10  6  1  0
 15 11  2  0
M  END
>  <fragmenstein_mode>  (53) 
expansion

>  <original SMILES>  (53) 
C[C@H](N[C@H](C)[C@@H]1CCCO1)c1cn[nH]c1

>  <fragmenstein_outcome>  (53) 
acceptable

>  <energy_score>  (53) 
-40.96788

>  <tags>  (53) 
['Fragmenstein placed']

>  <original ID>  (53) 
YOGZHRSNFOZWTM-NGZCFLSTSA-N

>  <alias>  (53) 
None

>  <ref_mols>  (53) 
d0160a,d0254a

>  <HIPPO Pose ID>  (53) 
63019

>  <ref_pdb>  (53) 
d0254a

>  <scratch_subdir>  (53) 
/opt/xchem-fragalysis-2/maxwin/BulkDock/SCRATCH/217042/C13688-P26

>  <HIPPO Compound ID>  (53) 
13688

>  <exports>  (53) 
['/opt/xchem-fragalysis-2/maxwin/BulkDock/OUTPUTS/RdRp_knitwork_primer_grip_n_pocket_pure_split1800_batch008_217042.sdf']

>  <fragmenstein_runtime>  (53) 
3.040166

>  <fragmenstein_error>  (53) 
None

>  <distance_score>  (53) 
0.799

>  <csv_name>  (53) 
RdRp_knitwork_primer_grip_n_pocket_pure_split1800_batch008.csv

>  <inchikey>  (53) 
YOGZHRSNFOZWTM-NGZCFLSTSA-N

>  <SLURM_JOB_NAME>  (53) 
BulkDock.place:Flavi_NS5_RdRp:RdRp_knitwork_primer_grip_n_pocket_pure_split1800_batch008

>  <SLURM_JOB_ID>  (53) 
217042

>  <name>  (53) 
YOGZHRSNFOZWTM-NGZCFLSTSA-N

$$$$
63024
     RDKit          3D

 15 16  0  0  0  0  0  0  0  0999 V2000
  -18.9719  -44.5489  -22.5090 O   0  0  0  0  0  0  0  0  0  0  0  0
  -17.7828  -44.6773  -22.2100 C   0  0  0  0  0  0  0  0  0  0  0  0
  -16.7090  -44.2705  -23.2008 C   0  0  0  0  0  0  0  0  0  0  0  0
  -16.3892  -42.7811  -23.1755 C   0  0  0  0  0  0  0  0  0  0  0  0
  -15.1503  -42.4562  -22.3387 C   0  0  0  0  0  0  0  0  0  0  0  0
  -14.8594  -40.9551  -22.2914 C   0  0  1  0  0  0  0  0  0  0  0  0
  -13.6244  -40.6111  -21.4855 C   0  0  0  0  0  0  0  0  0  0  0  0
  -13.2713  -39.2400  -22.0123 C   0  0  0  0  0  0  0  0  0  0  0  0
  -13.6633  -39.2088  -23.3869 O   0  0  0  0  0  0  0  0  0  0  0  0
  -14.5666  -40.3013  -23.6348 C   0  0  0  0  0  0  0  0  0  0  0  0
  -17.4030  -45.1899  -20.9032 C   0  0  0  0  0  0  0  0  0  0  0  0
  -18.2573  -45.5961  -19.8511 C   0  0  0  0  0  0  0  0  0  0  0  0
  -17.5863  -45.9585  -18.7519 N   0  0  0  0  0  0  0  0  0  0  0  0
  -16.3011  -45.8342  -19.1127 N   0  0  0  0  0  0  0  0  0  0  0  0
  -16.1379  -45.3818  -20.3878 C   0  0  0  0  0  0  0  0  0  0  0  0
  1  2  2  0
  2  3  1  0
  3  4  1  0
  4  5  1  0
  6  5  1  6
  6  7  1  0
  7  8  1  0
  8  9  1  0
  9 10  1  0
  2 11  1  0
 11 12  1  0
 12 13  2  0
 13 14  1  0
 14 15  1  0
 10  6  1  0
 15 11  2  0
M  END
>  <fragmenstein_mode>  (54) 
expansion

>  <original SMILES>  (54) 
O=C(CCC[C@H]1CCOC1)c1cn[nH]c1

>  <fragmenstein_outcome>  (54) 
acceptable

>  <energy_score>  (54) 
-23.196867

>  <tags>  (54) 
['Fragmenstein placed']

>  <original ID>  (54) 
IVUKYONBXBNKOW-VIFPVBQESA-N

>  <alias>  (54) 
None

>  <ref_mols>  (54) 
d0160a,d0254a

>  <HIPPO Pose ID>  (54) 
63024

>  <ref_pdb>  (54) 
d0254a

>  <scratch_subdir>  (54) 
/opt/xchem-fragalysis-2/maxwin/BulkDock/SCRATCH/217042/C13689-P26

>  <HIPPO Compound ID>  (54) 
13689

>  <exports>  (54) 
['/opt/xchem-fragalysis-2/maxwin/BulkDock/OUTPUTS/RdRp_knitwork_primer_grip_n_pocket_pure_split1800_batch008_217042.sdf']

>  <fragmenstein_runtime>  (54) 
2.310119

>  <fragmenstein_error>  (54) 
None

>  <distance_score>  (54) 
0.98217

>  <csv_name>  (54) 
RdRp_knitwork_primer_grip_n_pocket_pure_split1800_batch008.csv

>  <inchikey>  (54) 
IVUKYONBXBNKOW-VIFPVBQESA-N

>  <SLURM_JOB_NAME>  (54) 
BulkDock.place:Flavi_NS5_RdRp:RdRp_knitwork_primer_grip_n_pocket_pure_split1800_batch008

>  <SLURM_JOB_ID>  (54) 
217042

>  <name>  (54) 
IVUKYONBXBNKOW-VIFPVBQESA-N

$$$$
63048
     RDKit          3D

 21 22  0  0  0  0  0  0  0  0999 V2000
  -14.5002  -43.0607  -24.1035 O   0  0  0  0  0  0  0  0  0  0  0  0
  -15.0767  -42.1123  -23.7454 C   0  0  0  0  0  0  0  0  0  0  0  0
  -15.0865  -41.7059  -22.2703 C   0  0  0  0  0  0  0  0  0  0  0  0
  -15.0925  -39.9105  -21.9575 S   0  0  0  0  0  0  0  0  0  0  0  0
  -13.5786  -39.4490  -22.8465 C   0  0  0  0  0  0  0  0  0  0  0  0
  -13.0387  -38.1229  -22.4289 C   0  0  0  0  0  0  0  0  0  0  0  0
  -11.8165  -37.6872  -22.6624 N   0  0  0  0  0  0  0  0  0  0  0  0
  -11.7339  -36.4536  -22.0696 C   0  0  0  0  0  0  0  0  0  0  0  0
  -12.9386  -36.1072  -21.5104 C   0  0  0  0  0  0  0  0  0  0  0  0
  -13.7685  -37.1604  -21.7728 N   0  0  0  0  0  0  0  0  0  0  0  0
  -15.9883  -41.1385  -24.5284 N   0  0  0  0  0  0  0  0  0  0  0  0
  -16.3028  -41.0761  -25.9351 C   0  0  0  0  0  0  0  0  0  0  0  0
  -15.7729  -39.8121  -26.6152 C   0  0  0  0  0  0  0  0  0  0  0  0
  -16.8207  -38.7009  -26.7320 C   0  0  0  0  0  0  0  0  0  0  0  0
  -17.1867  -38.0372  -25.4028 C   0  0  0  0  0  0  0  0  0  0  0  0
  -18.3388  -37.0424  -25.5987 C   0  0  0  0  0  0  0  0  0  0  0  0
  -18.4996  -36.1055  -24.4944 N   0  0  0  0  0  0  0  0  0  0  0  0
  -19.6050  -35.1734  -24.6874 C   0  0  0  0  0  0  0  0  0  0  0  0
  -19.7613  -34.5235  -23.3216 C   0  0  0  0  0  0  0  0  0  0  0  0
  -19.1299  -35.5049  -22.3396 C   0  0  0  0  0  0  0  0  0  0  0  0
  -18.7086  -36.7009  -23.1819 C   0  0  0  0  0  0  0  0  0  0  0  0
  1  2  2  0
  2  3  1  0
  3  4  1  0
  4  5  1  0
  5  6  1  0
  6  7  2  0
  7  8  1  0
  8  9  2  0
  9 10  1  0
  2 11  1  0
 11 12  1  0
 12 13  1  0
 13 14  1  0
 14 15  1  0
 15 16  1  0
 16 17  1  0
 17 18  1  0
 18 19  1  0
 19 20  1  0
 20 21  1  0
 10  6  1  0
 21 17  1  0
M  END
>  <fragmenstein_mode>  (55) 
expansion

>  <original SMILES>  (55) 
O=C(CSCc1ncc[nH]1)NCCCCCN1CCCC1

>  <fragmenstein_outcome>  (55) 
acceptable

>  <energy_score>  (55) 
-53.492739

>  <tags>  (55) 
['Fragmenstein placed']

>  <original ID>  (55) 
HQFGKAQCERIHNI-UHFFFAOYSA-N

>  <alias>  (55) 
None

>  <ref_mols>  (55) 
d0866a,z0103a

>  <HIPPO Pose ID>  (55) 
63048

>  <ref_pdb>  (55) 
d0866a

>  <scratch_subdir>  (55) 
/opt/xchem-fragalysis-2/maxwin/BulkDock/SCRATCH/217040/C24955-P68

>  <HIPPO Compound ID>  (55) 
24955

>  <exports>  (55) 
['/opt/xchem-fragalysis-2/maxwin/BulkDock/OUTPUTS/RdRp_knitwork_primer_grip_n_pocket_pure_split1800_batch006_217040.sdf']

>  <fragmenstein_runtime>  (55) 
17.272082

>  <fragmenstein_error>  (55) 
None

>  <distance_score>  (55) 
0.898533

>  <csv_name>  (55) 
RdRp_knitwork_primer_grip_n_pocket_pure_split1800_batch006.csv

>  <inchikey>  (55) 
HQFGKAQCERIHNI-UHFFFAOYSA-N

>  <SLURM_JOB_NAME>  (55) 
BulkDock.place:Flavi_NS5_RdRp:RdRp_knitwork_primer_grip_n_pocket_pure_split1800_batch006

>  <SLURM_JOB_ID>  (55) 
217040

>  <name>  (55) 
HQFGKAQCERIHNI-UHFFFAOYSA-N

$$$$
63089
     RDKit          3D

 21 22  0  0  0  0  0  0  0  0999 V2000
  -16.6140  -39.4600  -20.5804 C   0  0  0  0  0  0  0  0  0  0  0  0
  -16.2093  -39.0568  -21.7976 C   0  0  0  0  0  0  0  0  0  0  0  0
  -15.6846  -37.6787  -22.1044 C   0  0  0  0  0  0  0  0  0  0  0  0
  -14.2271  -37.5848  -22.1067 N   0  0  0  0  0  0  0  0  0  0  0  0
  -13.4842  -36.5522  -21.5910 C   0  0  0  0  0  0  0  0  0  0  0  0
  -12.1876  -36.8124  -21.9709 C   0  0  0  0  0  0  0  0  0  0  0  0
  -12.1247  -37.9828  -22.6815 N   0  0  0  0  0  0  0  0  0  0  0  0
  -13.3580  -38.4372  -22.7238 C   0  0  0  0  0  0  0  0  0  0  0  0
  -16.4102  -39.9421  -22.9937 C   0  0  0  0  0  0  0  0  0  0  0  0
  -16.8943  -39.5348  -23.9701 O   0  0  0  0  0  0  0  0  0  0  0  0
  -15.7916  -41.3166  -22.6856 N   0  0  0  0  0  0  0  0  0  0  0  0
  -15.5482  -42.4685  -23.5587 C   0  0  2  0  0  0  0  0  0  0  0  0
  -16.3791  -42.4393  -24.8589 C   0  0  0  0  0  0  0  0  0  0  0  0
  -15.9344  -41.4262  -25.7493 O   0  0  0  0  0  0  0  0  0  0  0  0
  -15.8274  -43.8002  -22.8240 C   0  0  0  0  0  0  0  0  0  0  0  0
  -15.2233  -43.9873  -21.4560 C   0  0  0  0  0  0  0  0  0  0  0  0
  -13.9963  -43.4433  -21.0749 C   0  0  0  0  0  0  0  0  0  0  0  0
  -13.5393  -43.6060  -19.7722 C   0  0  0  0  0  0  0  0  0  0  0  0
  -14.3064  -44.3549  -18.9003 C   0  0  0  0  0  0  0  0  0  0  0  0
  -15.4521  -44.9757  -19.2486 N   0  0  0  0  0  0  0  0  0  0  0  0
  -15.8851  -44.7707  -20.5125 C   0  0  0  0  0  0  0  0  0  0  0  0
  1  2  2  0
  2  3  1  0
  3  4  1  0
  4  5  1  0
  5  6  2  0
  6  7  1  0
  7  8  2  0
  2  9  1  0
  9 10  2  0
  9 11  1  0
 11 12  1  0
 12 13  1  6
 13 14  1  0
 12 15  1  0
 15 16  1  0
 16 17  2  0
 17 18  1  0
 18 19  2  0
 19 20  1  0
 20 21  2  0
  8  4  1  0
 21 16  1  0
M  END
>  <fragmenstein_mode>  (56) 
expansion

>  <original SMILES>  (56) 
C=C(Cn1ccnc1)C(=O)N[C@H](CO)Cc1cccnc1

>  <fragmenstein_outcome>  (56) 
acceptable

>  <energy_score>  (56) 
-191.449485

>  <tags>  (56) 
['Fragmenstein placed']

>  <original ID>  (56) 
RVTMFWDQLFZZMH-AWEZNQCLSA-N

>  <alias>  (56) 
None

>  <ref_mols>  (56) 
d0472a,z0103a

>  <HIPPO Pose ID>  (56) 
63089

>  <ref_pdb>  (56) 
d0472a

>  <scratch_subdir>  (56) 
/opt/xchem-fragalysis-2/maxwin/BulkDock/SCRATCH/217041/C9237-P42

>  <HIPPO Compound ID>  (56) 
9237

>  <exports>  (56) 
['/opt/xchem-fragalysis-2/maxwin/BulkDock/OUTPUTS/RdRp_knitwork_primer_grip_n_pocket_pure_split1800_batch007_217041.sdf']

>  <fragmenstein_runtime>  (56) 
3.730701

>  <fragmenstein_error>  (56) 
None

>  <distance_score>  (56) 
0.776264

>  <csv_name>  (56) 
RdRp_knitwork_primer_grip_n_pocket_pure_split1800_batch007.csv

>  <inchikey>  (56) 
RVTMFWDQLFZZMH-AWEZNQCLSA-N

>  <SLURM_JOB_NAME>  (56) 
BulkDock.place:Flavi_NS5_RdRp:RdRp_knitwork_primer_grip_n_pocket_pure_split1800_batch007

>  <SLURM_JOB_ID>  (56) 
217041

>  <name>  (56) 
RVTMFWDQLFZZMH-AWEZNQCLSA-N

$$$$
63232
     RDKit          3D

 15 16  0  0  0  0  0  0  0  0999 V2000
  -16.6939  -42.0320  -25.3292 C   0  0  0  0  0  0  0  0  0  0  0  0
  -15.8983  -40.8457  -24.8254 C   0  0  0  0  0  0  0  0  0  0  0  0
  -14.7712  -41.1943  -23.8520 C   0  0  1  0  0  0  0  0  0  0  0  0
  -14.0470  -39.9532  -23.6240 O   0  0  0  0  0  0  0  0  0  0  0  0
  -14.0528  -39.6575  -22.2327 C   0  0  0  0  0  0  0  0  0  0  0  0
  -14.2141  -40.9847  -21.5469 C   0  0  0  0  0  0  0  0  0  0  0  0
  -15.1812  -41.7268  -22.4669 C   0  0  2  0  0  0  0  0  0  0  0  0
  -15.0290  -43.2434  -22.2412 C   0  0  0  0  0  0  0  0  0  0  0  0
  -15.9906  -44.1201  -22.9114 N   0  0  0  0  0  0  0  0  0  0  0  0
  -17.3199  -44.2056  -22.3099 C   0  0  0  0  0  0  0  0  0  0  0  0
  -17.3374  -44.9097  -20.9949 C   0  0  0  0  0  0  0  0  0  0  0  0
  -18.2530  -44.6713  -19.9399 C   0  0  0  0  0  0  0  0  0  0  0  0
  -18.0183  -45.4226  -18.8629 N   0  0  0  0  0  0  0  0  0  0  0  0
  -16.9765  -46.1793  -19.2349 N   0  0  0  0  0  0  0  0  0  0  0  0
  -16.5384  -45.9210  -20.5000 C   0  0  0  0  0  0  0  0  0  0  0  0
  1  2  1  0
  3  2  1  6
  3  4  1  0
  4  5  1  0
  5  6  1  0
  6  7  1  0
  7  8  1  6
  8  9  1  0
  9 10  1  0
 10 11  1  0
 11 12  1  0
 12 13  2  0
 13 14  1  0
 14 15  1  0
  7  3  1  0
 15 11  2  0
M  END
>  <fragmenstein_mode>  (57) 
expansion

>  <original SMILES>  (57) 
CC[C@H]1OCC[C@@H]1CNCc1cn[nH]c1

>  <fragmenstein_outcome>  (57) 
acceptable

>  <energy_score>  (57) 
-23.176503

>  <tags>  (57) 
['Fragmenstein placed']

>  <original ID>  (57) 
YVVYLMDYBLZVGB-GHMZBOCLSA-N

>  <alias>  (57) 
None

>  <ref_mols>  (57) 
d0160a,d0254a

>  <HIPPO Pose ID>  (57) 
63232

>  <ref_pdb>  (57) 
d0160a

>  <scratch_subdir>  (57) 
/opt/xchem-fragalysis-2/maxwin/BulkDock/SCRATCH/217042/C15098-P12

>  <HIPPO Compound ID>  (57) 
15098

>  <exports>  (57) 
['/opt/xchem-fragalysis-2/maxwin/BulkDock/OUTPUTS/RdRp_knitwork_primer_grip_n_pocket_pure_split1800_batch008_217042.sdf']

>  <fragmenstein_runtime>  (57) 
4.923704

>  <fragmenstein_error>  (57) 
None

>  <distance_score>  (57) 
0.980816

>  <csv_name>  (57) 
RdRp_knitwork_primer_grip_n_pocket_pure_split1800_batch008.csv

>  <inchikey>  (57) 
YVVYLMDYBLZVGB-GHMZBOCLSA-N

>  <SLURM_JOB_NAME>  (57) 
BulkDock.place:Flavi_NS5_RdRp:RdRp_knitwork_primer_grip_n_pocket_pure_split1800_batch008

>  <SLURM_JOB_ID>  (57) 
217042

>  <name>  (57) 
YVVYLMDYBLZVGB-GHMZBOCLSA-N

$$$$
63236
     RDKit          3D

 15 16  0  0  0  0  0  0  0  0999 V2000
  -16.5079  -42.2233  -25.4380 C   0  0  0  0  0  0  0  0  0  0  0  0
  -15.8530  -40.9626  -24.9114 C   0  0  0  0  0  0  0  0  0  0  0  0
  -14.7559  -41.2135  -23.8785 C   0  0  1  0  0  0  0  0  0  0  0  0
  -14.0775  -39.9431  -23.6832 O   0  0  0  0  0  0  0  0  0  0  0  0
  -14.0600  -39.6298  -22.2948 C   0  0  0  0  0  0  0  0  0  0  0  0
  -14.2236  -40.9429  -21.5808 C   0  0  0  0  0  0  0  0  0  0  0  0
  -15.1889  -41.7036  -22.4867 C   0  0  2  0  0  0  0  0  0  0  0  0
  -15.0548  -43.2143  -22.2169 C   0  0  0  0  0  0  0  0  0  0  0  0
  -16.0271  -44.0926  -22.8702 N   0  0  0  0  0  0  0  0  0  0  0  0
  -17.3486  -44.1550  -22.2526 C   0  0  0  0  0  0  0  0  0  0  0  0
  -17.3571  -44.8845  -20.9512 C   0  0  0  0  0  0  0  0  0  0  0  0
  -18.2240  -44.6306  -19.8596 C   0  0  0  0  0  0  0  0  0  0  0  0
  -17.9959  -45.4266  -18.8140 N   0  0  0  0  0  0  0  0  0  0  0  0
  -17.0053  -46.2225  -19.2399 N   0  0  0  0  0  0  0  0  0  0  0  0
  -16.5866  -45.9410  -20.5068 C   0  0  0  0  0  0  0  0  0  0  0  0
  1  2  1  0
  3  2  1  6
  3  4  1  0
  4  5  1  0
  5  6  1  0
  6  7  1  0
  7  8  1  6
  8  9  1  0
  9 10  1  0
 10 11  1  0
 11 12  1  0
 12 13  2  0
 13 14  1  0
 14 15  1  0
  7  3  1  0
 15 11  2  0
M  END
>  <fragmenstein_mode>  (58) 
expansion

>  <original SMILES>  (58) 
CC[C@H]1OCC[C@@H]1CNCc1cn[nH]c1

>  <fragmenstein_outcome>  (58) 
acceptable

>  <energy_score>  (58) 
-23.012811

>  <tags>  (58) 
['Fragmenstein placed']

>  <original ID>  (58) 
YVVYLMDYBLZVGB-GHMZBOCLSA-N

>  <alias>  (58) 
None

>  <ref_mols>  (58) 
d0160a,d0254a

>  <HIPPO Pose ID>  (58) 
63236

>  <ref_pdb>  (58) 
d0254a

>  <scratch_subdir>  (58) 
/opt/xchem-fragalysis-2/maxwin/BulkDock/SCRATCH/217042/C15098-P26

>  <HIPPO Compound ID>  (58) 
15098

>  <exports>  (58) 
['/opt/xchem-fragalysis-2/maxwin/BulkDock/OUTPUTS/RdRp_knitwork_primer_grip_n_pocket_pure_split1800_batch008_217042.sdf']

>  <fragmenstein_runtime>  (58) 
4.37406

>  <fragmenstein_error>  (58) 
None

>  <distance_score>  (58) 
0.988307

>  <csv_name>  (58) 
RdRp_knitwork_primer_grip_n_pocket_pure_split1800_batch008.csv

>  <inchikey>  (58) 
YVVYLMDYBLZVGB-GHMZBOCLSA-N

>  <SLURM_JOB_NAME>  (58) 
BulkDock.place:Flavi_NS5_RdRp:RdRp_knitwork_primer_grip_n_pocket_pure_split1800_batch008

>  <SLURM_JOB_ID>  (58) 
217042

>  <name>  (58) 
YVVYLMDYBLZVGB-GHMZBOCLSA-N

$$$$
63237
     RDKit          3D

 22 23  0  0  0  0  0  0  0  0999 V2000
  -15.0653  -41.8708  -23.5817 C   0  0  0  0  0  0  0  0  0  0  0  0
  -14.7658  -41.2249  -22.2309 C   0  0  2  0  0  0  0  0  0  0  0  0
  -13.5939  -40.4077  -22.3255 O   0  0  0  0  0  0  0  0  0  0  0  0
  -13.8367  -39.1103  -22.8559 C   0  0  0  0  0  0  0  0  0  0  0  0
  -13.1220  -38.0959  -21.9712 C   0  0  1  0  0  0  0  0  0  0  0  0
  -11.6201  -38.0177  -22.1639 C   0  0  0  0  0  0  0  0  0  0  0  0
  -11.3142  -36.6925  -21.5071 C   0  0  0  0  0  0  0  0  0  0  0  0
  -12.5481  -35.8635  -21.7984 C   0  0  0  0  0  0  0  0  0  0  0  0
  -13.5837  -36.7633  -22.2239 O   0  0  0  0  0  0  0  0  0  0  0  0
  -14.5493  -42.2580  -21.1145 C   0  0  0  0  0  0  0  0  0  0  0  0
  -13.6278  -42.2574  -20.3071 O   0  0  0  0  0  0  0  0  0  0  0  0
  -15.5866  -43.1414  -21.0731 O   0  0  0  0  0  0  0  0  0  0  0  0
  -15.4006  -44.2031  -20.1406 C   0  0  0  0  0  0  0  0  0  0  0  0
  -16.7047  -44.9118  -20.0477 C   0  0  0  0  0  0  0  0  0  0  0  0
  -17.1384  -45.5313  -18.9024 N   0  0  0  0  0  0  0  0  0  0  0  0
  -18.3995  -45.9978  -19.1308 C   0  0  0  0  0  0  0  0  0  0  0  0
  -18.7941  -45.7341  -20.3533 N   0  0  0  0  0  0  0  0  0  0  0  0
  -17.7298  -45.0920  -20.9697 C   0  0  0  0  0  0  0  0  0  0  0  0
  -17.7926  -44.6119  -22.3920 C   0  0  0  0  0  0  0  0  0  0  0  0
  -16.5840  -44.6779  -23.0078 F   0  0  0  0  0  0  0  0  0  0  0  0
  -18.6588  -45.3212  -23.1602 F   0  0  0  0  0  0  0  0  0  0  0  0
  -18.1998  -43.3152  -22.4533 F   0  0  0  0  0  0  0  0  0  0  0  0
  2  1  1  6
  2  3  1  0
  3  4  1  0
  5  4  1  6
  5  6  1  0
  6  7  1  0
  7  8  1  0
  8  9  1  0
  2 10  1  0
 10 11  2  0
 10 12  1  0
 12 13  1  0
 13 14  1  0
 14 15  1  0
 15 16  1  0
 16 17  2  0
 17 18  1  0
 18 19  1  0
 19 20  1  0
 19 21  1  0
 19 22  1  0
  9  5  1  0
 18 14  2  0
M  END
>  <fragmenstein_mode>  (59) 
expansion

>  <original SMILES>  (59) 
C[C@H](OC[C@H]1CCCO1)C(=O)OCc1[nH]cnc1C(F)(F)F

>  <fragmenstein_outcome>  (59) 
acceptable

>  <energy_score>  (59) 
-27.539887

>  <tags>  (59) 
['Fragmenstein placed']

>  <original ID>  (59) 
TZBFCIFYWDCELX-DTWKUNHWSA-N

>  <alias>  (59) 
None

>  <ref_mols>  (59) 
d0254a,z0103a

>  <HIPPO Pose ID>  (59) 
63237

>  <ref_pdb>  (59) 
d0254a

>  <scratch_subdir>  (59) 
/opt/xchem-fragalysis-2/maxwin/BulkDock/SCRATCH/217049/C22796-P26

>  <HIPPO Compound ID>  (59) 
22796

>  <exports>  (59) 
['/opt/xchem-fragalysis-2/maxwin/BulkDock/OUTPUTS/RdRp_knitwork_primer_grip_n_pocket_pure_split1800_batch015_217049.sdf']

>  <fragmenstein_runtime>  (59) 
6.408202

>  <fragmenstein_error>  (59) 
None

>  <distance_score>  (59) 
0.852183

>  <csv_name>  (59) 
RdRp_knitwork_primer_grip_n_pocket_pure_split1800_batch015.csv

>  <inchikey>  (59) 
TZBFCIFYWDCELX-DTWKUNHWSA-N

>  <SLURM_JOB_NAME>  (59) 
BulkDock.place:Flavi_NS5_RdRp:RdRp_knitwork_primer_grip_n_pocket_pure_split1800_batch015

>  <SLURM_JOB_ID>  (59) 
217049

>  <name>  (59) 
TZBFCIFYWDCELX-DTWKUNHWSA-N

$$$$
63254
     RDKit          3D

 22 25  0  0  0  0  0  0  0  0999 V2000
  -11.6159  -36.5188  -22.0470 C   0  0  0  0  0  0  0  0  0  0  0  0
  -12.8304  -35.8840  -21.9440 C   0  0  0  0  0  0  0  0  0  0  0  0
  -14.0167  -36.5329  -21.8757 N   0  0  0  0  0  0  0  0  0  0  0  0
  -13.9928  -37.8870  -21.8396 C   0  0  0  0  0  0  0  0  0  0  0  0
  -12.8254  -38.6191  -21.8583 C   0  0  0  0  0  0  0  0  0  0  0  0
  -12.7457  -40.0177  -21.5076 C   0  0  0  0  0  0  0  0  0  0  0  0
  -11.6453  -40.6152  -21.1136 N   0  0  0  0  0  0  0  0  0  0  0  0
  -12.0003  -41.8362  -20.6603 N   0  0  0  0  0  0  0  0  0  0  0  0
  -13.2959  -41.9539  -20.8481 C   0  0  0  0  0  0  0  0  0  0  0  0
  -14.1302  -43.0345  -20.3581 C   0  0  0  0  0  0  0  0  0  0  0  0
  -13.8420  -43.5074  -19.0720 C   0  0  0  0  0  0  0  0  0  0  0  0
  -14.5442  -44.5833  -18.5839 C   0  0  0  0  0  0  0  0  0  0  0  0
  -15.4604  -45.2467  -19.3026 N   0  0  0  0  0  0  0  0  0  0  0  0
  -15.7550  -44.7768  -20.5452 C   0  0  0  0  0  0  0  0  0  0  0  0
  -16.7575  -45.4970  -21.2446 N   0  0  0  0  0  0  0  0  0  0  0  0
  -17.3299  -46.6779  -20.8173 C   0  0  0  0  0  0  0  0  0  0  0  0
  -18.2401  -47.0238  -21.7827 C   0  0  0  0  0  0  0  0  0  0  0  0
  -18.2712  -46.0844  -22.7756 N   0  0  0  0  0  0  0  0  0  0  0  0
  -17.3701  -45.1893  -22.4326 C   0  0  0  0  0  0  0  0  0  0  0  0
  -15.1234  -43.6664  -21.1097 C   0  0  0  0  0  0  0  0  0  0  0  0
  -13.8635  -40.8151  -21.3849 O   0  0  0  0  0  0  0  0  0  0  0  0
  -11.6208  -37.9038  -22.0117 C   0  0  0  0  0  0  0  0  0  0  0  0
  1  2  2  0
  2  3  1  0
  3  4  2  0
  4  5  1  0
  5  6  1  0
  6  7  2  0
  7  8  1  0
  8  9  2  0
  9 10  1  0
 10 11  2  0
 11 12  1  0
 12 13  2  0
 13 14  1  0
 14 15  1  0
 15 16  1  0
 16 17  2  0
 17 18  1  0
 18 19  2  0
 14 20  2  0
  9 21  1  0
  5 22  2  0
 22  1  1  0
 21  6  1  0
 20 10  1  0
 19 15  1  0
M  END
>  <fragmenstein_mode>  (60) 
expansion

>  <original SMILES>  (60) 
c1cncc(-c2nnc(-c3ccnc(-n4ccnc4)c3)o2)c1

>  <fragmenstein_outcome>  (60) 
acceptable

>  <energy_score>  (60) 
-20.155261

>  <tags>  (60) 
['Fragmenstein placed']

>  <original ID>  (60) 
SSVXXQWWLAHTNL-UHFFFAOYSA-N

>  <alias>  (60) 
None

>  <ref_mols>  (60) 
d0472a,z0103a

>  <HIPPO Pose ID>  (60) 
63254

>  <ref_pdb>  (60) 
d0472a

>  <scratch_subdir>  (60) 
/opt/xchem-fragalysis-2/maxwin/BulkDock/SCRATCH/217041/C21233-P42

>  <HIPPO Compound ID>  (60) 
21233

>  <exports>  (60) 
['/opt/xchem-fragalysis-2/maxwin/BulkDock/OUTPUTS/RdRp_knitwork_primer_grip_n_pocket_pure_split1800_batch007_217041.sdf']

>  <fragmenstein_runtime>  (60) 
3.767268

>  <fragmenstein_error>  (60) 
None

>  <distance_score>  (60) 
0.961848

>  <csv_name>  (60) 
RdRp_knitwork_primer_grip_n_pocket_pure_split1800_batch007.csv

>  <inchikey>  (60) 
SSVXXQWWLAHTNL-UHFFFAOYSA-N

>  <SLURM_JOB_NAME>  (60) 
BulkDock.place:Flavi_NS5_RdRp:RdRp_knitwork_primer_grip_n_pocket_pure_split1800_batch007

>  <SLURM_JOB_ID>  (60) 
217041

>  <name>  (60) 
SSVXXQWWLAHTNL-UHFFFAOYSA-N

$$$$
63518
     RDKit          3D

 22 23  0  0  0  0  0  0  0  0999 V2000
  -15.1996  -40.5811  -21.0949 O   0  0  0  0  0  0  0  0  0  0  0  0
  -15.9891  -40.4362  -21.9398 C   0  0  0  0  0  0  0  0  0  0  0  0
  -16.9300  -39.2348  -21.9530 C   0  0  0  0  0  0  0  0  0  0  0  0
  -16.1880  -37.9695  -22.3961 C   0  0  0  0  0  0  0  0  0  0  0  0
  -15.1879  -37.4649  -21.3410 C   0  0  0  0  0  0  0  0  0  0  0  0
  -13.8189  -37.3458  -21.8078 N   0  0  0  0  0  0  0  0  0  0  0  0
  -13.0017  -36.2614  -21.6346 C   0  0  0  0  0  0  0  0  0  0  0  0
  -11.8033  -36.6198  -22.2057 C   0  0  0  0  0  0  0  0  0  0  0  0
  -11.8787  -37.8851  -22.7316 N   0  0  0  0  0  0  0  0  0  0  0  0
  -13.0806  -38.3176  -22.4194 C   0  0  0  0  0  0  0  0  0  0  0  0
  -16.2372  -41.2514  -23.2289 N   0  0  0  0  0  0  0  0  0  0  0  0
  -15.6153  -42.4929  -23.7069 C   0  0  2  0  0  0  0  0  0  0  0  0
  -16.0998  -42.7100  -25.1608 C   0  0  0  0  0  0  0  0  0  0  0  0
  -17.5327  -42.7314  -25.2405 O   0  0  0  0  0  0  0  0  0  0  0  0
  -15.9733  -43.7553  -22.8610 C   0  0  2  0  0  0  0  0  0  0  0  0
  -17.4135  -43.7969  -22.7459 O   0  0  0  0  0  0  0  0  0  0  0  0
  -15.3533  -43.9628  -21.5017 C   0  0  0  0  0  0  0  0  0  0  0  0
  -14.1654  -43.3600  -21.0874 C   0  0  0  0  0  0  0  0  0  0  0  0
  -13.6721  -43.5880  -19.8060 C   0  0  0  0  0  0  0  0  0  0  0  0
  -14.3655  -44.4535  -18.9833 C   0  0  0  0  0  0  0  0  0  0  0  0
  -15.4614  -45.1391  -19.3662 N   0  0  0  0  0  0  0  0  0  0  0  0
  -15.9247  -44.8737  -20.6099 C   0  0  0  0  0  0  0  0  0  0  0  0
  1  2  2  0
  2  3  1  0
  3  4  1  0
  4  5  1  0
  5  6  1  0
  6  7  1  0
  7  8  2  0
  8  9  1  0
  9 10  2  0
  2 11  1  0
 11 12  1  0
 12 13  1  6
 13 14  1  0
 12 15  1  0
 15 16  1  1
 15 17  1  0
 17 18  2  0
 18 19  1  0
 19 20  2  0
 20 21  1  0
 21 22  2  0
 10  6  1  0
 22 17  1  0
M  END
>  <fragmenstein_mode>  (61) 
expansion

>  <original SMILES>  (61) 
O=C(CCCn1ccnc1)N[C@H](CO)[C@H](O)c1cccnc1

>  <fragmenstein_outcome>  (61) 
acceptable

>  <energy_score>  (61) 
-46.644808

>  <tags>  (61) 
['Fragmenstein placed']

>  <original ID>  (61) 
OGZOZASNCRKGGW-UKRRQHHQSA-N

>  <alias>  (61) 
None

>  <ref_mols>  (61) 
d0472a,z0103a

>  <HIPPO Pose ID>  (61) 
63518

>  <ref_pdb>  (61) 
d0472a

>  <scratch_subdir>  (61) 
/opt/xchem-fragalysis-2/maxwin/BulkDock/SCRATCH/217041/C21752-P42

>  <HIPPO Compound ID>  (61) 
21752

>  <exports>  (61) 
['/opt/xchem-fragalysis-2/maxwin/BulkDock/OUTPUTS/RdRp_knitwork_primer_grip_n_pocket_pure_split1800_batch007_217041.sdf']

>  <fragmenstein_runtime>  (61) 
5.108307

>  <fragmenstein_error>  (61) 
None

>  <distance_score>  (61) 
0.701444

>  <csv_name>  (61) 
RdRp_knitwork_primer_grip_n_pocket_pure_split1800_batch007.csv

>  <inchikey>  (61) 
OGZOZASNCRKGGW-UKRRQHHQSA-N

>  <SLURM_JOB_NAME>  (61) 
BulkDock.place:Flavi_NS5_RdRp:RdRp_knitwork_primer_grip_n_pocket_pure_split1800_batch007

>  <SLURM_JOB_ID>  (61) 
217041

>  <name>  (61) 
OGZOZASNCRKGGW-UKRRQHHQSA-N

$$$$
63661
     RDKit          3D

 22 24  0  0  0  0  0  0  0  0999 V2000
  -16.8102  -41.4676  -21.6223 C   0  0  0  0  0  0  0  0  0  0  0  0
  -16.0194  -40.9185  -22.8067 C   0  0  1  0  0  0  0  0  0  0  0  0
  -14.6769  -41.6431  -22.9637 C   0  0  0  0  0  0  0  0  0  0  0  0
  -13.6344  -41.1349  -22.0172 C   0  0  0  0  0  0  0  0  0  0  0  0
  -12.8715  -41.7798  -21.0652 C   0  0  0  0  0  0  0  0  0  0  0  0
  -11.9406  -40.9270  -20.5282 N   0  0  0  0  0  0  0  0  0  0  0  0
  -12.1453  -39.7708  -21.1099 C   0  0  0  0  0  0  0  0  0  0  0  0
  -13.1601  -39.8451  -22.0188 N   0  0  0  0  0  0  0  0  0  0  0  0
  -16.8487  -41.0408  -24.0921 C   0  0  0  0  0  0  0  0  0  0  0  0
  -17.8277  -41.6702  -24.1646 O   0  0  0  0  0  0  0  0  0  0  0  0
  -16.1579  -40.1350  -25.1416 N   0  0  0  0  0  0  0  0  0  0  0  0
  -16.5803  -39.7436  -26.4612 C   0  0  0  0  0  0  0  0  0  0  0  0
  -17.5109  -38.5927  -26.3564 C   0  0  0  0  0  0  0  0  0  0  0  0
  -18.4716  -38.2117  -27.1716 N   0  0  0  0  0  0  0  0  0  0  0  0
  -19.0877  -37.1326  -26.5785 N   0  0  0  0  0  0  0  0  0  0  0  0
  -18.4804  -36.9430  -25.4246 C   0  0  0  0  0  0  0  0  0  0  0  0
  -18.7213  -36.0353  -24.4672 N   0  0  0  0  0  0  0  0  0  0  0  0
  -19.8406  -35.1262  -24.5646 C   0  0  0  0  0  0  0  0  0  0  0  0
  -19.7709  -34.3421  -23.2598 C   0  0  0  0  0  0  0  0  0  0  0  0
  -19.2416  -35.3737  -22.2749 C   0  0  0  0  0  0  0  0  0  0  0  0
  -18.2519  -36.1942  -23.1030 C   0  0  0  0  0  0  0  0  0  0  0  0
  -17.4500  -37.8158  -25.2267 O   0  0  0  0  0  0  0  0  0  0  0  0
  2  1  1  1
  2  3  1  0
  3  4  1  0
  4  5  2  0
  5  6  1  0
  6  7  2  0
  7  8  1  0
  2  9  1  0
  9 10  2  0
  9 11  1  0
 11 12  1  0
 12 13  1  0
 13 14  2  0
 14 15  1  0
 15 16  2  0
 16 17  1  0
 17 18  1  0
 18 19  1  0
 19 20  1  0
 20 21  1  0
 16 22  1  0
  8  4  1  0
 22 13  1  0
 21 17  1  0
M  END
>  <fragmenstein_mode>  (62) 
expansion

>  <original SMILES>  (62) 
C[C@@H](Cc1cnc[nH]1)C(=O)NCc1nnc(N2CCCC2)o1

>  <fragmenstein_outcome>  (62) 
acceptable

>  <energy_score>  (62) 
-63.595465

>  <tags>  (62) 
['Fragmenstein placed']

>  <original ID>  (62) 
ISGOZNHBHDSYOK-JTQLQIEISA-N

>  <alias>  (62) 
None

>  <ref_mols>  (62) 
d0866a,z0875c

>  <HIPPO Pose ID>  (62) 
63661

>  <ref_pdb>  (62) 
d0866a

>  <scratch_subdir>  (62) 
/opt/xchem-fragalysis-2/maxwin/BulkDock/SCRATCH/217043/C23300-P68

>  <HIPPO Compound ID>  (62) 
23300

>  <exports>  (62) 
['/opt/xchem-fragalysis-2/maxwin/BulkDock/OUTPUTS/RdRp_knitwork_primer_grip_n_pocket_pure_split1800_batch009_217043.sdf']

>  <fragmenstein_runtime>  (62) 
11.646739

>  <fragmenstein_error>  (62) 
None

>  <distance_score>  (62) 
0.887666

>  <csv_name>  (62) 
RdRp_knitwork_primer_grip_n_pocket_pure_split1800_batch009.csv

>  <inchikey>  (62) 
ISGOZNHBHDSYOK-JTQLQIEISA-N

>  <SLURM_JOB_NAME>  (62) 
BulkDock.place:Flavi_NS5_RdRp:RdRp_knitwork_primer_grip_n_pocket_pure_split1800_batch009

>  <SLURM_JOB_ID>  (62) 
217043

>  <name>  (62) 
ISGOZNHBHDSYOK-JTQLQIEISA-N

$$$$
63664
     RDKit          3D

 25 26  0  0  0  0  0  0  0  0999 V2000
  -14.3156  -35.7613  -20.4030 C   0  0  0  0  0  0  0  0  0  0  0  0
  -13.7433  -36.7105  -21.3845 C   0  0  0  0  0  0  0  0  0  0  0  0
  -12.4793  -36.7818  -21.9394 C   0  0  0  0  0  0  0  0  0  0  0  0
  -12.3731  -37.8623  -22.7768 N   0  0  0  0  0  0  0  0  0  0  0  0
  -13.5425  -38.4577  -22.7214 C   0  0  0  0  0  0  0  0  0  0  0  0
  -14.4294  -37.7656  -21.9433 N   0  0  0  0  0  0  0  0  0  0  0  0
  -15.8270  -38.1480  -21.7677 C   0  0  0  0  0  0  0  0  0  0  0  0
  -16.5956  -37.9910  -23.0854 C   0  0  0  0  0  0  0  0  0  0  0  0
  -16.7868  -36.9380  -23.5528 O   0  0  0  0  0  0  0  0  0  0  0  0
  -16.9166  -39.4094  -23.6343 N   0  0  0  0  0  0  0  0  0  0  0  0
  -17.4531  -39.8233  -24.9158 C   0  0  1  0  0  0  0  0  0  0  0  0
  -16.9637  -41.2444  -25.2908 C   0  0  0  0  0  0  0  0  0  0  0  0
  -15.4812  -41.5196  -25.0177 C   0  0  0  0  0  0  0  0  0  0  0  0
  -15.2243  -42.2824  -23.8088 N   0  0  0  0  0  0  0  0  0  0  0  0
  -16.0096  -42.3581  -22.4904 C   0  0  0  0  0  0  0  0  0  0  0  0
  -17.0288  -41.8809  -22.1901 O   0  0  0  0  0  0  0  0  0  0  0  0
  -15.3093  -43.1691  -21.4782 C   0  0  0  0  0  0  0  0  0  0  0  0
  -14.0350  -42.8220  -21.0397 C   0  0  0  0  0  0  0  0  0  0  0  0
  -13.5028  -43.4914  -19.9444 C   0  0  0  0  0  0  0  0  0  0  0  0
  -14.2614  -44.4888  -19.3506 C   0  0  0  0  0  0  0  0  0  0  0  0
  -15.4778  -44.8863  -19.7840 N   0  0  0  0  0  0  0  0  0  0  0  0
  -15.9878  -44.1948  -20.8307 C   0  0  0  0  0  0  0  0  0  0  0  0
  -19.0051  -39.7166  -24.9670 C   0  0  0  0  0  0  0  0  0  0  0  0
  -19.5721  -40.1939  -26.3116 C   0  0  0  0  0  0  0  0  0  0  0  0
  -19.5025  -38.2885  -24.7133 C   0  0  0  0  0  0  0  0  0  0  0  0
  1  2  1  0
  2  3  2  0
  3  4  1  0
  4  5  2  0
  5  6  1  0
  6  7  1  0
  7  8  1  0
  8  9  2  0
  8 10  1  0
 10 11  1  0
 11 12  1  1
 12 13  1  0
 13 14  1  0
 14 15  1  0
 15 16  2  0
 15 17  1  0
 17 18  2  0
 18 19  1  0
 19 20  2  0
 20 21  1  0
 21 22  2  0
 11 23  1  0
 23 24  1  0
 23 25  1  0
  6  2  1  0
 22 17  1  0
M  END
>  <fragmenstein_mode>  (63) 
expansion

>  <original SMILES>  (63) 
Cc1cncn1CC(=O)N[C@@H](CCNC(=O)c1cccnc1)C(C)C

>  <fragmenstein_outcome>  (63) 
acceptable

>  <energy_score>  (63) 
-1.706733

>  <tags>  (63) 
['Fragmenstein placed']

>  <original ID>  (63) 
WJPDEPLQUUSHRX-INIZCTEOSA-N

>  <alias>  (63) 
None

>  <ref_mols>  (63) 
d0472a,z0103a

>  <HIPPO Pose ID>  (63) 
63664

>  <ref_pdb>  (63) 
d0472a

>  <scratch_subdir>  (63) 
/opt/xchem-fragalysis-2/maxwin/BulkDock/SCRATCH/217041/C22010-P42

>  <HIPPO Compound ID>  (63) 
22010

>  <exports>  (63) 
['/opt/xchem-fragalysis-2/maxwin/BulkDock/OUTPUTS/RdRp_knitwork_primer_grip_n_pocket_pure_split1800_batch007_217041.sdf']

>  <fragmenstein_runtime>  (63) 
12.604321

>  <fragmenstein_error>  (63) 
None

>  <distance_score>  (63) 
0.911275

>  <csv_name>  (63) 
RdRp_knitwork_primer_grip_n_pocket_pure_split1800_batch007.csv

>  <inchikey>  (63) 
WJPDEPLQUUSHRX-INIZCTEOSA-N

>  <SLURM_JOB_NAME>  (63) 
BulkDock.place:Flavi_NS5_RdRp:RdRp_knitwork_primer_grip_n_pocket_pure_split1800_batch007

>  <SLURM_JOB_ID>  (63) 
217041

>  <name>  (63) 
WJPDEPLQUUSHRX-INIZCTEOSA-N

$$$$
64118
     RDKit          3D

 21 22  0  0  0  0  0  0  0  0999 V2000
  -16.2897  -42.4998  -26.3896 O   0  0  0  0  0  0  0  0  0  0  0  0
  -15.6134  -41.6597  -25.9522 C   0  0  0  0  0  0  0  0  0  0  0  0
  -15.3430  -40.3471  -26.6779 C   0  0  0  0  0  0  0  0  0  0  0  0
  -16.3777  -39.3054  -26.3223 C   0  0  0  0  0  0  0  0  0  0  0  0
  -16.3316  -38.5639  -25.1383 C   0  0  0  0  0  0  0  0  0  0  0  0
  -17.3356  -37.6441  -24.8606 C   0  0  0  0  0  0  0  0  0  0  0  0
  -18.3470  -37.4883  -25.7900 C   0  0  0  0  0  0  0  0  0  0  0  0
  -18.4467  -38.1846  -26.9397 N   0  0  0  0  0  0  0  0  0  0  0  0
  -17.4571  -39.0809  -27.1712 C   0  0  0  0  0  0  0  0  0  0  0  0
  -14.9191  -41.5493  -24.5787 N   0  0  0  0  0  0  0  0  0  0  0  0
  -14.9908  -42.4040  -23.4260 C   0  0  0  0  0  0  0  0  0  0  0  0
  -16.4909  -42.7038  -23.2535 C   0  0  1  0  0  0  0  0  0  0  0  0
  -16.8369  -43.9359  -23.8977 O   0  0  0  0  0  0  0  0  0  0  0  0
  -16.9208  -42.6903  -21.7861 C   0  0  0  0  0  0  0  0  0  0  0  0
  -18.4013  -42.6612  -21.7547 N   0  0  0  0  0  0  0  0  0  0  0  0
  -18.8884  -42.6279  -20.3728 C   0  0  0  0  0  0  0  0  0  0  0  0
  -19.0049  -44.0248  -19.8493 C   0  0  0  0  0  0  0  0  0  0  0  0
  -19.4257  -44.3977  -18.5880 C   0  0  0  0  0  0  0  0  0  0  0  0
  -19.2738  -46.0908  -18.3984 S   0  0  0  0  0  0  0  0  0  0  0  0
  -18.7172  -46.2061  -20.0141 C   0  0  0  0  0  0  0  0  0  0  0  0
  -18.6546  -45.0804  -20.6838 N   0  0  0  0  0  0  0  0  0  0  0  0
  1  2  2  0
  2  3  1  0
  3  4  1  0
  4  5  2  0
  5  6  1  0
  6  7  2  0
  7  8  1  0
  8  9  2  0
  2 10  1  0
 10 11  1  0
 11 12  1  0
 12 13  1  1
 12 14  1  0
 14 15  1  0
 15 16  1  0
 16 17  1  0
 17 18  2  0
 18 19  1  0
 19 20  1  0
 20 21  2  0
  9  4  1  0
 21 17  1  0
M  END
>  <fragmenstein_mode>  (64) 
expansion

>  <original SMILES>  (64) 
O=C(Cc1cccnc1)NC[C@@H](O)CNCc1cscn1

>  <fragmenstein_outcome>  (64) 
acceptable

>  <energy_score>  (64) 
-50.950561

>  <tags>  (64) 
['Fragmenstein placed']

>  <original ID>  (64) 
JKDVGUUNALSXLQ-ZDUSSCGKSA-N

>  <alias>  (64) 
None

>  <ref_mols>  (64) 
d0191a,d0264a

>  <HIPPO Pose ID>  (64) 
64118

>  <ref_pdb>  (64) 
d0191a

>  <scratch_subdir>  (64) 
/opt/xchem-fragalysis-2/maxwin/BulkDock/SCRATCH/217037/C11911-P19

>  <HIPPO Compound ID>  (64) 
11911

>  <exports>  (64) 
['/opt/xchem-fragalysis-2/maxwin/BulkDock/OUTPUTS/RdRp_knitwork_primer_grip_n_pocket_pure_split1800_batch003_217037.sdf']

>  <fragmenstein_runtime>  (64) 
6.049995

>  <fragmenstein_error>  (64) 
None

>  <distance_score>  (64) 
0.887474

>  <csv_name>  (64) 
RdRp_knitwork_primer_grip_n_pocket_pure_split1800_batch003.csv

>  <inchikey>  (64) 
JKDVGUUNALSXLQ-ZDUSSCGKSA-N

>  <SLURM_JOB_NAME>  (64) 
BulkDock.place:Flavi_NS5_RdRp:RdRp_knitwork_primer_grip_n_pocket_pure_split1800_batch003

>  <SLURM_JOB_ID>  (64) 
217037

>  <name>  (64) 
JKDVGUUNALSXLQ-ZDUSSCGKSA-N

$$$$
64125
     RDKit          3D

 22 23  0  0  0  0  0  0  0  0999 V2000
  -17.6698  -47.2426  -21.1534 C   0  0  0  0  0  0  0  0  0  0  0  0
  -18.2899  -46.0338  -20.5473 C   0  0  0  0  0  0  0  0  0  0  0  0
  -18.2832  -44.8652  -21.1480 N   0  0  0  0  0  0  0  0  0  0  0  0
  -18.7626  -43.8756  -20.2980 C   0  0  0  0  0  0  0  0  0  0  0  0
  -18.6273  -42.4326  -20.7060 C   0  0  0  0  0  0  0  0  0  0  0  0
  -17.3401  -42.2105  -21.3936 N   0  0  0  0  0  0  0  0  0  0  0  0
  -17.3727  -42.6080  -22.8167 C   0  0  0  0  0  0  0  0  0  0  0  0
  -16.1506  -43.4721  -23.2556 C   0  0  2  0  0  0  0  0  0  0  0  0
  -15.8636  -44.4449  -22.2368 O   0  0  0  0  0  0  0  0  0  0  0  0
  -14.8646  -42.6826  -23.5023 C   0  0  0  0  0  0  0  0  0  0  0  0
  -14.9887  -41.7490  -24.5846 N   0  0  0  0  0  0  0  0  0  0  0  0
  -16.0402  -41.6591  -25.7211 C   0  0  0  0  0  0  0  0  0  0  0  0
  -17.0087  -42.2837  -25.9061 O   0  0  0  0  0  0  0  0  0  0  0  0
  -15.6473  -40.4654  -26.5847 C   0  0  0  0  0  0  0  0  0  0  0  0
  -16.5424  -39.3027  -26.2620 C   0  0  0  0  0  0  0  0  0  0  0  0
  -16.4106  -38.5729  -25.0780 C   0  0  0  0  0  0  0  0  0  0  0  0
  -17.2874  -37.5308  -24.8194 C   0  0  0  0  0  0  0  0  0  0  0  0
  -18.2544  -37.2506  -25.7670 C   0  0  0  0  0  0  0  0  0  0  0  0
  -18.4556  -37.9581  -26.8992 N   0  0  0  0  0  0  0  0  0  0  0  0
  -17.5866  -38.9720  -27.1156 C   0  0  0  0  0  0  0  0  0  0  0  0
  -19.2651  -44.3556  -19.1031 C   0  0  0  0  0  0  0  0  0  0  0  0
  -19.0022  -46.0445  -18.9900 S   0  0  0  0  0  0  0  0  0  0  0  0
  1  2  1  0
  2  3  2  0
  3  4  1  0
  4  5  1  0
  5  6  1  0
  6  7  1  0
  7  8  1  0
  8  9  1  1
  8 10  1  0
 10 11  1  0
 11 12  1  0
 12 13  2  0
 12 14  1  0
 14 15  1  0
 15 16  2  0
 16 17  1  0
 17 18  2  0
 18 19  1  0
 19 20  2  0
  4 21  2  0
 21 22  1  0
 22  2  1  0
 20 15  1  0
M  END
>  <fragmenstein_mode>  (65) 
expansion

>  <original SMILES>  (65) 
Cc1nc(CNC[C@H](O)CNC(=O)Cc2cccnc2)cs1

>  <fragmenstein_outcome>  (65) 
acceptable

>  <energy_score>  (65) 
-39.350368

>  <tags>  (65) 
['Fragmenstein placed']

>  <original ID>  (65) 
FRHGZODAWRSSBZ-AWEZNQCLSA-N

>  <alias>  (65) 
None

>  <ref_mols>  (65) 
d0191a,d0264a

>  <HIPPO Pose ID>  (65) 
64125

>  <ref_pdb>  (65) 
d0191a

>  <scratch_subdir>  (65) 
/opt/xchem-fragalysis-2/maxwin/BulkDock/SCRATCH/217037/C11915-P19

>  <HIPPO Compound ID>  (65) 
11915

>  <exports>  (65) 
['/opt/xchem-fragalysis-2/maxwin/BulkDock/OUTPUTS/RdRp_knitwork_primer_grip_n_pocket_pure_split1800_batch003_217037.sdf']

>  <fragmenstein_runtime>  (65) 
7.10888

>  <fragmenstein_error>  (65) 
None

>  <distance_score>  (65) 
0.841771

>  <csv_name>  (65) 
RdRp_knitwork_primer_grip_n_pocket_pure_split1800_batch003.csv

>  <inchikey>  (65) 
FRHGZODAWRSSBZ-AWEZNQCLSA-N

>  <SLURM_JOB_NAME>  (65) 
BulkDock.place:Flavi_NS5_RdRp:RdRp_knitwork_primer_grip_n_pocket_pure_split1800_batch003

>  <SLURM_JOB_ID>  (65) 
217037

>  <name>  (65) 
FRHGZODAWRSSBZ-AWEZNQCLSA-N

$$$$
64642
     RDKit          3D

 20 22  0  0  0  0  0  0  0  0999 V2000
  -23.3125  -37.7583  -22.9071 O   0  0  0  0  0  0  0  0  0  0  0  0
  -22.3010  -38.1502  -23.4808 C   0  0  0  0  0  0  0  0  0  0  0  0
  -21.3556  -37.1886  -24.1565 C   0  0  0  0  0  0  0  0  0  0  0  0
  -20.6135  -37.8555  -25.3019 C   0  0  0  0  0  0  0  0  0  0  0  0
  -19.8834  -39.0975  -24.7815 C   0  0  2  0  0  0  0  0  0  0  0  0
  -19.0551  -39.7263  -25.9159 C   0  0  0  0  0  0  0  0  0  0  0  0
  -18.0195  -40.6539  -25.4588 N   0  0  0  0  0  0  0  0  0  0  0  0
  -17.5123  -41.4942  -26.5377 C   0  0  0  0  0  0  0  0  0  0  0  0
  -16.7289  -42.6681  -25.9498 C   0  0  0  0  0  0  0  0  0  0  0  0
  -15.8780  -42.2927  -24.7325 C   0  0  0  0  0  0  0  0  0  0  0  0
  -15.5987  -40.7903  -24.7175 C   0  0  2  0  0  0  0  0  0  0  0  0
  -14.7440  -40.3608  -23.5717 C   0  0  0  0  0  0  0  0  0  0  0  0
  -14.4315  -40.9214  -22.3528 C   0  0  0  0  0  0  0  0  0  0  0  0
  -13.5467  -40.0061  -21.7541 C   0  0  0  0  0  0  0  0  0  0  0  0
  -13.3271  -38.9322  -22.5184 N   0  0  0  0  0  0  0  0  0  0  0  0
  -14.0638  -39.1742  -23.6176 N   0  0  0  0  0  0  0  0  0  0  0  0
  -16.9307  -39.9997  -24.7164 C   0  0  0  0  0  0  0  0  0  0  0  0
  -20.9229  -40.0596  -24.2182 C   0  0  0  0  0  0  0  0  0  0  0  0
  -20.8646  -41.2792  -24.3327 O   0  0  0  0  0  0  0  0  0  0  0  0
  -21.9468  -39.4762  -23.5025 N   0  0  0  0  0  0  0  0  0  0  0  0
  1  2  2  0
  2  3  1  0
  3  4  1  0
  4  5  1  0
  5  6  1  6
  6  7  1  0
  7  8  1  0
  8  9  1  0
  9 10  1  0
 10 11  1  0
 11 12  1  1
 12 13  2  0
 13 14  1  0
 14 15  2  0
 15 16  1  0
 11 17  1  0
  5 18  1  0
 18 19  2  0
 18 20  1  0
 20  2  1  0
 17  7  1  0
 16 12  1  0
M  END
>  <fragmenstein_mode>  (66) 
expansion

>  <original SMILES>  (66) 
O=C1CC[C@H](CN2CCC[C@H](c3ccn[nH]3)C2)C(=O)N1

>  <fragmenstein_outcome>  (66) 
acceptable

>  <energy_score>  (66) 
-47.877951

>  <tags>  (66) 
['Fragmenstein placed']

>  <original ID>  (66) 
NKWIUEXWXTXNHS-WDEREUQCSA-N

>  <alias>  (66) 
None

>  <ref_mols>  (66) 
d0160a,d0851a

>  <HIPPO Pose ID>  (66) 
64642

>  <ref_pdb>  (66) 
d0851a

>  <scratch_subdir>  (66) 
/opt/xchem-fragalysis-2/maxwin/BulkDock/SCRATCH/217037/C8625-P66

>  <HIPPO Compound ID>  (66) 
8625

>  <exports>  (66) 
['/opt/xchem-fragalysis-2/maxwin/BulkDock/OUTPUTS/RdRp_knitwork_primer_grip_n_pocket_pure_split1800_batch003_217037.sdf']

>  <fragmenstein_runtime>  (66) 
3.104355

>  <fragmenstein_error>  (66) 
None

>  <distance_score>  (66) 
0.753243

>  <csv_name>  (66) 
RdRp_knitwork_primer_grip_n_pocket_pure_split1800_batch003.csv

>  <inchikey>  (66) 
NKWIUEXWXTXNHS-WDEREUQCSA-N

>  <SLURM_JOB_NAME>  (66) 
BulkDock.place:Flavi_NS5_RdRp:RdRp_knitwork_primer_grip_n_pocket_pure_split1800_batch003

>  <SLURM_JOB_ID>  (66) 
217037

>  <name>  (66) 
NKWIUEXWXTXNHS-WDEREUQCSA-N

$$$$
64706
     RDKit          3D

 22 25  0  0  0  0  0  0  0  0999 V2000
  -23.4756  -38.6829  -24.3157 C   0  0  0  0  0  0  0  0  0  0  0  0
  -22.9435  -39.8562  -24.8343 C   0  0  0  0  0  0  0  0  0  0  0  0
  -21.6164  -39.8861  -25.2675 C   0  0  0  0  0  0  0  0  0  0  0  0
  -20.7844  -38.7416  -25.1850 C   0  0  0  0  0  0  0  0  0  0  0  0
  -19.4260  -38.6902  -25.5918 C   0  0  0  0  0  0  0  0  0  0  0  0
  -18.7349  -39.9495  -26.1176 C   0  0  0  0  0  0  0  0  0  0  0  0
  -17.2748  -39.8510  -26.2942 N   0  0  0  0  0  0  0  0  0  0  0  0
  -16.7249  -40.9072  -27.1370 C   0  0  0  0  0  0  0  0  0  0  0  0
  -16.6726  -42.2563  -26.4192 C   0  0  0  0  0  0  0  0  0  0  0  0
  -15.9699  -42.1669  -25.0572 C   0  0  0  0  0  0  0  0  0  0  0  0
  -15.4148  -40.7585  -24.8171 C   0  0  2  0  0  0  0  0  0  0  0  0
  -14.7335  -40.6004  -23.4973 C   0  0  0  0  0  0  0  0  0  0  0  0
  -14.4670  -41.4396  -22.4384 C   0  0  0  0  0  0  0  0  0  0  0  0
  -13.6729  -40.6723  -21.5637 C   0  0  0  0  0  0  0  0  0  0  0  0
  -13.4709  -39.4314  -22.0142 N   0  0  0  0  0  0  0  0  0  0  0  0
  -14.1341  -39.4131  -23.1784 N   0  0  0  0  0  0  0  0  0  0  0  0
  -16.5565  -39.7274  -25.0110 C   0  0  0  0  0  0  0  0  0  0  0  0
  -18.6845  -37.5483  -25.5379 N   0  0  0  0  0  0  0  0  0  0  0  0
  -19.2461  -36.4587  -24.9848 C   0  0  0  0  0  0  0  0  0  0  0  0
  -20.5523  -36.4109  -24.5413 C   0  0  0  0  0  0  0  0  0  0  0  0
  -21.3426  -37.5569  -24.6521 C   0  0  0  0  0  0  0  0  0  0  0  0
  -22.6814  -37.5405  -24.2260 C   0  0  0  0  0  0  0  0  0  0  0  0
  1  2  2  0
  2  3  1  0
  3  4  2  0
  4  5  1  0
  5  6  1  0
  6  7  1  0
  7  8  1  0
  8  9  1  0
  9 10  1  0
 10 11  1  0
 11 12  1  1
 12 13  2  0
 13 14  1  0
 14 15  2  0
 15 16  1  0
 11 17  1  0
  5 18  2  0
 18 19  1  0
 19 20  2  0
 20 21  1  0
 21 22  2  0
 22  1  1  0
 21  4  1  0
 17  7  1  0
 16 12  1  0
M  END
>  <fragmenstein_mode>  (67) 
expansion

>  <original SMILES>  (67) 
c1ccc2c(CN3CCC[C@H](c4ccn[nH]4)C3)nccc2c1

>  <fragmenstein_outcome>  (67) 
acceptable

>  <energy_score>  (67) 
-31.271857

>  <tags>  (67) 
['Fragmenstein placed']

>  <original ID>  (67) 
LKFNBVQMNIXWEQ-HNNXBMFYSA-N

>  <alias>  (67) 
None

>  <ref_mols>  (67) 
d0160a,d0851a

>  <HIPPO Pose ID>  (67) 
64706

>  <ref_pdb>  (67) 
d0160a

>  <scratch_subdir>  (67) 
/opt/xchem-fragalysis-2/maxwin/BulkDock/SCRATCH/217037/C12208-P12

>  <HIPPO Compound ID>  (67) 
12208

>  <exports>  (67) 
['/opt/xchem-fragalysis-2/maxwin/BulkDock/OUTPUTS/RdRp_knitwork_primer_grip_n_pocket_pure_split1800_batch003_217037.sdf']

>  <fragmenstein_runtime>  (67) 
3.844955

>  <fragmenstein_error>  (67) 
None

>  <distance_score>  (67) 
0.917189

>  <csv_name>  (67) 
RdRp_knitwork_primer_grip_n_pocket_pure_split1800_batch003.csv

>  <inchikey>  (67) 
LKFNBVQMNIXWEQ-HNNXBMFYSA-N

>  <SLURM_JOB_NAME>  (67) 
BulkDock.place:Flavi_NS5_RdRp:RdRp_knitwork_primer_grip_n_pocket_pure_split1800_batch003

>  <SLURM_JOB_ID>  (67) 
217037

>  <name>  (67) 
LKFNBVQMNIXWEQ-HNNXBMFYSA-N

$$$$
64707
     RDKit          3D

 22 25  0  0  0  0  0  0  0  0999 V2000
  -23.6282  -37.5982  -24.9259 C   0  0  0  0  0  0  0  0  0  0  0  0
  -23.2967  -38.8736  -25.3642 C   0  0  0  0  0  0  0  0  0  0  0  0
  -21.9579  -39.2131  -25.5709 C   0  0  0  0  0  0  0  0  0  0  0  0
  -20.9142  -38.2809  -25.3505 C   0  0  0  0  0  0  0  0  0  0  0  0
  -19.5323  -38.5450  -25.5450 C   0  0  0  0  0  0  0  0  0  0  0  0
  -19.0700  -39.9574  -25.9213 C   0  0  0  0  0  0  0  0  0  0  0  0
  -17.6190  -40.1881  -26.0995 N   0  0  0  0  0  0  0  0  0  0  0  0
  -17.3410  -41.5135  -26.6567 C   0  0  0  0  0  0  0  0  0  0  0  0
  -17.1074  -42.5910  -25.6053 C   0  0  0  0  0  0  0  0  0  0  0  0
  -15.9631  -42.2540  -24.6534 C   0  0  0  0  0  0  0  0  0  0  0  0
  -15.5767  -40.7734  -24.7260 C   0  0  2  0  0  0  0  0  0  0  0  0
  -14.7490  -40.3311  -23.5620 C   0  0  0  0  0  0  0  0  0  0  0  0
  -14.4155  -40.8908  -22.3480 C   0  0  0  0  0  0  0  0  0  0  0  0
  -13.5414  -39.9634  -21.7523 C   0  0  0  0  0  0  0  0  0  0  0  0
  -13.3433  -38.8842  -22.5136 N   0  0  0  0  0  0  0  0  0  0  0  0
  -14.0933  -39.1284  -23.6049 N   0  0  0  0  0  0  0  0  0  0  0  0
  -16.8489  -39.9112  -24.8702 C   0  0  0  0  0  0  0  0  0  0  0  0
  -18.5804  -37.5903  -25.3731 N   0  0  0  0  0  0  0  0  0  0  0  0
  -18.9615  -36.3875  -24.9068 C   0  0  0  0  0  0  0  0  0  0  0  0
  -20.2742  -36.0425  -24.6595 C   0  0  0  0  0  0  0  0  0  0  0  0
  -21.2717  -36.9877  -24.9013 C   0  0  0  0  0  0  0  0  0  0  0  0
  -22.6225  -36.6618  -24.6927 C   0  0  0  0  0  0  0  0  0  0  0  0
  1  2  2  0
  2  3  1  0
  3  4  2  0
  4  5  1  0
  5  6  1  0
  6  7  1  0
  7  8  1  0
  8  9  1  0
  9 10  1  0
 10 11  1  0
 11 12  1  1
 12 13  2  0
 13 14  1  0
 14 15  2  0
 15 16  1  0
 11 17  1  0
  5 18  2  0
 18 19  1  0
 19 20  2  0
 20 21  1  0
 21 22  2  0
 22  1  1  0
 21  4  1  0
 17  7  1  0
 16 12  1  0
M  END
>  <fragmenstein_mode>  (68) 
expansion

>  <original SMILES>  (68) 
c1ccc2c(CN3CCC[C@H](c4ccn[nH]4)C3)nccc2c1

>  <fragmenstein_outcome>  (68) 
acceptable

>  <energy_score>  (68) 
-32.933156

>  <tags>  (68) 
['Fragmenstein placed']

>  <original ID>  (68) 
LKFNBVQMNIXWEQ-HNNXBMFYSA-N

>  <alias>  (68) 
None

>  <ref_mols>  (68) 
d0160a,d0851a

>  <HIPPO Pose ID>  (68) 
64707

>  <ref_pdb>  (68) 
d0851a

>  <scratch_subdir>  (68) 
/opt/xchem-fragalysis-2/maxwin/BulkDock/SCRATCH/217037/C12208-P66

>  <HIPPO Compound ID>  (68) 
12208

>  <exports>  (68) 
['/opt/xchem-fragalysis-2/maxwin/BulkDock/OUTPUTS/RdRp_knitwork_primer_grip_n_pocket_pure_split1800_batch003_217037.sdf']

>  <fragmenstein_runtime>  (68) 
3.495247

>  <fragmenstein_error>  (68) 
None

>  <distance_score>  (68) 
0.912694

>  <csv_name>  (68) 
RdRp_knitwork_primer_grip_n_pocket_pure_split1800_batch003.csv

>  <inchikey>  (68) 
LKFNBVQMNIXWEQ-HNNXBMFYSA-N

>  <SLURM_JOB_NAME>  (68) 
BulkDock.place:Flavi_NS5_RdRp:RdRp_knitwork_primer_grip_n_pocket_pure_split1800_batch003

>  <SLURM_JOB_ID>  (68) 
217037

>  <name>  (68) 
LKFNBVQMNIXWEQ-HNNXBMFYSA-N

$$$$
64813
     RDKit          3D

 22 23  0  0  0  0  0  0  0  0999 V2000
  -15.2152  -47.2110  -18.7577 C   0  0  0  0  0  0  0  0  0  0  0  0
  -16.5171  -47.6032  -19.4320 C   0  0  0  0  0  0  0  0  0  0  0  0
  -17.4324  -46.4834  -19.9352 C   0  0  2  0  0  0  0  0  0  0  0  0
  -16.7732  -45.6912  -20.9493 N   0  0  0  0  0  0  0  0  0  0  0  0
  -17.3207  -45.0961  -22.2702 C   0  0  0  0  0  0  0  0  0  0  0  0
  -18.3386  -45.2166  -22.7649 O   0  0  0  0  0  0  0  0  0  0  0  0
  -16.1165  -44.2112  -22.6649 N   0  0  0  0  0  0  0  0  0  0  0  0
  -15.9906  -43.2761  -23.6564 C   0  0  0  0  0  0  0  0  0  0  0  0
  -16.9341  -43.0889  -24.6551 C   0  0  0  0  0  0  0  0  0  0  0  0
  -16.7595  -42.0210  -25.5341 C   0  0  0  0  0  0  0  0  0  0  0  0
  -15.6819  -41.1677  -25.3465 C   0  0  0  0  0  0  0  0  0  0  0  0
  -15.5183  -40.0984  -26.1710 O   0  0  0  0  0  0  0  0  0  0  0  0
  -15.6180  -38.8613  -25.4597 C   0  0  0  0  0  0  0  0  0  0  0  0
  -16.8629  -38.7571  -24.9258 F   0  0  0  0  0  0  0  0  0  0  0  0
  -14.7306  -38.8226  -24.4257 F   0  0  0  0  0  0  0  0  0  0  0  0
  -14.7796  -41.4650  -24.3411 C   0  0  0  0  0  0  0  0  0  0  0  0
  -14.9083  -42.4979  -23.4918 N   0  0  0  0  0  0  0  0  0  0  0  0
  -18.0284  -45.6095  -18.7983 C   0  0  1  0  0  0  0  0  0  0  0  0
  -17.0981  -44.5620  -18.2041 C   0  0  0  0  0  0  0  0  0  0  0  0
  -17.3500  -43.3427  -19.0488 C   0  0  0  0  0  0  0  0  0  0  0  0
  -18.8079  -43.4825  -19.4211 C   0  0  0  0  0  0  0  0  0  0  0  0
  -19.1642  -44.8630  -19.2936 O   0  0  0  0  0  0  0  0  0  0  0  0
  1  2  1  0
  3  2  1  1
  3  4  1  0
  4  5  1  0
  5  6  2  0
  5  7  1  0
  7  8  1  0
  8  9  2  0
  9 10  1  0
 10 11  2  0
 11 12  1  0
 12 13  1  0
 13 14  1  0
 13 15  1  0
 11 16  1  0
 16 17  2  0
  3 18  1  0
 18 19  1  6
 19 20  1  0
 20 21  1  0
 21 22  1  0
 17  8  1  0
 22 18  1  0
M  END
>  <fragmenstein_mode>  (69) 
expansion

>  <original SMILES>  (69) 
CC[C@H](NC(=O)Nc1ccc(OC(F)F)cn1)[C@H]1CCCO1

>  <fragmenstein_outcome>  (69) 
acceptable

>  <energy_score>  (69) 
-10.073686

>  <tags>  (69) 
['Fragmenstein placed']

>  <original ID>  (69) 
QYNKZXZODFVRMI-WDEREUQCSA-N

>  <alias>  (69) 
None

>  <ref_mols>  (69) 
d0160a,d0254a

>  <HIPPO Pose ID>  (69) 
64813

>  <ref_pdb>  (69) 
d0160a

>  <scratch_subdir>  (69) 
/opt/xchem-fragalysis-2/maxwin/BulkDock/SCRATCH/217042/C17764-P12

>  <HIPPO Compound ID>  (69) 
17764

>  <exports>  (69) 
['/opt/xchem-fragalysis-2/maxwin/BulkDock/OUTPUTS/RdRp_knitwork_primer_grip_n_pocket_pure_split1800_batch008_217042.sdf']

>  <fragmenstein_runtime>  (69) 
9.744388

>  <fragmenstein_error>  (69) 
None

>  <distance_score>  (69) 
0.990129

>  <csv_name>  (69) 
RdRp_knitwork_primer_grip_n_pocket_pure_split1800_batch008.csv

>  <inchikey>  (69) 
QYNKZXZODFVRMI-WDEREUQCSA-N

>  <SLURM_JOB_NAME>  (69) 
BulkDock.place:Flavi_NS5_RdRp:RdRp_knitwork_primer_grip_n_pocket_pure_split1800_batch008

>  <SLURM_JOB_ID>  (69) 
217042

>  <name>  (69) 
QYNKZXZODFVRMI-WDEREUQCSA-N

$$$$
65176
     RDKit          3D

 22 25  0  0  0  0  0  0  0  0999 V2000
  -13.4638  -40.1265  -19.0045 O   0  0  0  0  0  0  0  0  0  0  0  0
  -13.0136  -39.6315  -19.9589 C   0  0  0  0  0  0  0  0  0  0  0  0
  -11.8865  -38.5892  -20.1074 N   0  0  0  0  0  0  0  0  0  0  0  0
  -11.1312  -37.8571  -19.0930 C   0  0  1  0  0  0  0  0  0  0  0  0
  -10.1031  -36.8591  -19.7031 C   0  0  0  0  0  0  0  0  0  0  0  0
  -11.1487  -35.7284  -19.5092 C   0  0  0  0  0  0  0  0  0  0  0  0
  -11.8175  -36.6478  -18.5129 C   0  0  0  0  0  0  0  0  0  0  0  0
  -13.2997  -36.5649  -18.2942 C   0  0  0  0  0  0  0  0  0  0  0  0
  -13.0104  -35.7631  -17.0729 N   0  0  0  0  0  0  0  0  0  0  0  0
  -11.6384  -36.3391  -17.0450 C   0  0  0  0  0  0  0  0  0  0  0  0
  -13.5984  -39.9964  -21.2701 C   0  0  0  0  0  0  0  0  0  0  0  0
  -13.8681  -41.3279  -21.5598 C   0  0  0  0  0  0  0  0  0  0  0  0
  -14.5234  -41.6492  -22.7489 C   0  0  0  0  0  0  0  0  0  0  0  0
  -14.8901  -40.6314  -23.6323 C   0  0  0  0  0  0  0  0  0  0  0  0
  -15.6838  -40.8880  -24.8503 C   0  0  0  0  0  0  0  0  0  0  0  0
  -15.5132  -40.1284  -26.0128 C   0  0  0  0  0  0  0  0  0  0  0  0
  -16.3166  -40.3857  -27.1172 C   0  0  0  0  0  0  0  0  0  0  0  0
  -17.2905  -41.3235  -27.1505 N   0  0  0  0  0  0  0  0  0  0  0  0
  -17.4408  -42.0482  -26.0258 C   0  0  0  0  0  0  0  0  0  0  0  0
  -16.6781  -41.8769  -24.8800 C   0  0  0  0  0  0  0  0  0  0  0  0
  -14.5963  -39.3291  -23.3696 N   0  0  0  0  0  0  0  0  0  0  0  0
  -13.9890  -39.0400  -22.1921 C   0  0  0  0  0  0  0  0  0  0  0  0
  1  2  2  0
  2  3  1  0
  4  3  1  6
  4  5  1  0
  5  6  1  0
  6  7  1  0
  7  8  1  0
  8  9  1  0
  9 10  1  0
  2 11  1  0
 11 12  2  0
 12 13  1  0
 13 14  2  0
 14 15  1  0
 15 16  2  0
 16 17  1  0
 17 18  2  0
 18 19  1  0
 19 20  2  0
 14 21  1  0
 21 22  2  0
  7  4  1  0
 22 11  1  0
 10  7  1  0
 20 15  1  0
M  END
>  <fragmenstein_mode>  (70) 
expansion

>  <original SMILES>  (70) 
O=C(N[C@H]1CCC12CNC2)c1ccc(-c2ccncc2)nc1

>  <fragmenstein_outcome>  (70) 
acceptable

>  <energy_score>  (70) 
-3.461781

>  <tags>  (70) 
['Fragmenstein placed']

>  <original ID>  (70) 
UIYHLUVSYDHDET-HNNXBMFYSA-N

>  <alias>  (70) 
None

>  <ref_mols>  (70) 
d0160a,d0472a

>  <HIPPO Pose ID>  (70) 
65176

>  <ref_pdb>  (70) 
d0160a

>  <scratch_subdir>  (70) 
/opt/xchem-fragalysis-2/maxwin/BulkDock/SCRATCH/217041/C26127-P12

>  <HIPPO Compound ID>  (70) 
26127

>  <exports>  (70) 
['/opt/xchem-fragalysis-2/maxwin/BulkDock/OUTPUTS/RdRp_knitwork_primer_grip_n_pocket_pure_split1800_batch007_217041.sdf']

>  <fragmenstein_runtime>  (70) 
8.480792

>  <fragmenstein_error>  (70) 
None

>  <distance_score>  (70) 
0.639525

>  <csv_name>  (70) 
RdRp_knitwork_primer_grip_n_pocket_pure_split1800_batch007.csv

>  <inchikey>  (70) 
UIYHLUVSYDHDET-HNNXBMFYSA-N

>  <SLURM_JOB_NAME>  (70) 
BulkDock.place:Flavi_NS5_RdRp:RdRp_knitwork_primer_grip_n_pocket_pure_split1800_batch007

>  <SLURM_JOB_ID>  (70) 
217041

>  <name>  (70) 
UIYHLUVSYDHDET-HNNXBMFYSA-N

$$$$
65179
     RDKit          3D

 22 25  0  0  0  0  0  0  0  0999 V2000
  -13.2965  -38.0601  -19.5251 O   0  0  0  0  0  0  0  0  0  0  0  0
  -12.7670  -38.8962  -20.1406 C   0  0  0  0  0  0  0  0  0  0  0  0
  -11.4088  -39.5939  -19.9180 N   0  0  0  0  0  0  0  0  0  0  0  0
  -10.3558  -39.3374  -18.9270 C   0  0  1  0  0  0  0  0  0  0  0  0
   -8.9643  -39.8680  -19.4186 C   0  0  0  0  0  0  0  0  0  0  0  0
   -8.6234  -38.4223  -19.8598 C   0  0  0  0  0  0  0  0  0  0  0  0
   -9.6927  -37.9820  -18.8842 C   0  0  0  0  0  0  0  0  0  0  0  0
  -10.3829  -36.6659  -19.0684 C   0  0  0  0  0  0  0  0  0  0  0  0
   -9.4503  -36.0985  -18.0455 N   0  0  0  0  0  0  0  0  0  0  0  0
   -9.2165  -37.4749  -17.5365 C   0  0  0  0  0  0  0  0  0  0  0  0
  -13.4587  -39.4471  -21.3304 C   0  0  0  0  0  0  0  0  0  0  0  0
  -13.6462  -40.8119  -21.5261 C   0  0  0  0  0  0  0  0  0  0  0  0
  -14.3551  -41.2489  -22.6515 C   0  0  0  0  0  0  0  0  0  0  0  0
  -14.8323  -40.3171  -23.5770 C   0  0  0  0  0  0  0  0  0  0  0  0
  -15.6041  -40.6929  -24.7827 C   0  0  0  0  0  0  0  0  0  0  0  0
  -15.5341  -39.9322  -25.9584 C   0  0  0  0  0  0  0  0  0  0  0  0
  -16.3066  -40.2912  -27.0568 C   0  0  0  0  0  0  0  0  0  0  0  0
  -17.1550  -41.3433  -27.0763 N   0  0  0  0  0  0  0  0  0  0  0  0
  -17.2054  -42.0731  -25.9439 C   0  0  0  0  0  0  0  0  0  0  0  0
  -16.4670  -41.7976  -24.8000 C   0  0  0  0  0  0  0  0  0  0  0  0
  -14.6351  -38.9851  -23.3882 N   0  0  0  0  0  0  0  0  0  0  0  0
  -13.9896  -38.5786  -22.2658 C   0  0  0  0  0  0  0  0  0  0  0  0
  1  2  2  0
  2  3  1  0
  4  3  1  6
  4  5  1  0
  5  6  1  0
  6  7  1  0
  7  8  1  0
  8  9  1  0
  9 10  1  0
  2 11  1  0
 11 12  2  0
 12 13  1  0
 13 14  2  0
 14 15  1  0
 15 16  2  0
 16 17  1  0
 17 18  2  0
 18 19  1  0
 19 20  2  0
 14 21  1  0
 21 22  2  0
  7  4  1  0
 22 11  1  0
 10  7  1  0
 20 15  1  0
M  END
>  <fragmenstein_mode>  (71) 
expansion

>  <original SMILES>  (71) 
O=C(N[C@H]1CCC12CNC2)c1ccc(-c2ccncc2)nc1

>  <fragmenstein_outcome>  (71) 
acceptable

>  <energy_score>  (71) 
-3.731862

>  <tags>  (71) 
['Fragmenstein placed']

>  <original ID>  (71) 
UIYHLUVSYDHDET-HNNXBMFYSA-N

>  <alias>  (71) 
None

>  <ref_mols>  (71) 
d0160a,d0472a

>  <HIPPO Pose ID>  (71) 
65179

>  <ref_pdb>  (71) 
d0472a

>  <scratch_subdir>  (71) 
/opt/xchem-fragalysis-2/maxwin/BulkDock/SCRATCH/217041/C26127-P42

>  <HIPPO Compound ID>  (71) 
26127

>  <exports>  (71) 
['/opt/xchem-fragalysis-2/maxwin/BulkDock/OUTPUTS/RdRp_knitwork_primer_grip_n_pocket_pure_split1800_batch007_217041.sdf']

>  <fragmenstein_runtime>  (71) 
9.08404

>  <fragmenstein_error>  (71) 
None

>  <distance_score>  (71) 
0.664786

>  <csv_name>  (71) 
RdRp_knitwork_primer_grip_n_pocket_pure_split1800_batch007.csv

>  <inchikey>  (71) 
UIYHLUVSYDHDET-HNNXBMFYSA-N

>  <SLURM_JOB_NAME>  (71) 
BulkDock.place:Flavi_NS5_RdRp:RdRp_knitwork_primer_grip_n_pocket_pure_split1800_batch007

>  <SLURM_JOB_ID>  (71) 
217041

>  <name>  (71) 
UIYHLUVSYDHDET-HNNXBMFYSA-N

$$$$
65441
     RDKit          3D

 18 19  0  0  0  0  0  0  0  0999 V2000
  -18.5212  -45.1457  -22.9161 C   0  0  0  0  0  0  0  0  0  0  0  0
  -17.2458  -45.1956  -22.0789 C   0  0  1  0  0  0  0  0  0  0  0  0
  -16.7041  -43.8052  -21.7244 C   0  0  0  0  0  0  0  0  0  0  0  0
  -16.2217  -43.0130  -22.9282 C   0  0  0  0  0  0  0  0  0  0  0  0
  -16.4538  -43.2842  -24.0382 O   0  0  0  0  0  0  0  0  0  0  0  0
  -15.4894  -41.7839  -22.3251 N   0  0  0  0  0  0  0  0  0  0  0  0
  -14.8495  -40.7488  -22.9362 C   0  0  0  0  0  0  0  0  0  0  0  0
  -13.9806  -39.8148  -22.3266 C   0  0  0  0  0  0  0  0  0  0  0  0
  -13.5446  -38.8881  -23.1852 N   0  0  0  0  0  0  0  0  0  0  0  0
  -14.1455  -39.2506  -24.3411 N   0  0  0  0  0  0  0  0  0  0  0  0
  -14.9247  -40.3550  -24.2478 C   0  0  0  0  0  0  0  0  0  0  0  0
  -15.6400  -40.8017  -25.3810 C   0  0  0  0  0  0  0  0  0  0  0  0
  -16.1964  -41.0063  -26.3770 N   0  0  0  0  0  0  0  0  0  0  0  0
  -17.4503  -46.0501  -20.8118 C   0  0  2  0  0  0  0  0  0  0  0  0
  -18.5284  -45.5592  -19.8491 C   0  0  0  0  0  0  0  0  0  0  0  0
  -17.9942  -45.9871  -18.5063 C   0  0  0  0  0  0  0  0  0  0  0  0
  -16.5042  -45.8253  -18.6849 C   0  0  0  0  0  0  0  0  0  0  0  0
  -16.2178  -46.0888  -20.0621 O   0  0  0  0  0  0  0  0  0  0  0  0
  2  1  1  1
  2  3  1  0
  3  4  1  0
  4  5  2  0
  4  6  1  0
  6  7  1  0
  7  8  1  0
  8  9  2  0
  9 10  1  0
 10 11  1  0
 11 12  1  0
 12 13  3  0
  2 14  1  0
 14 15  1  1
 15 16  1  0
 16 17  1  0
 17 18  1  0
 11  7  2  0
 18 14  1  0
M  END
>  <fragmenstein_mode>  (72) 
expansion

>  <original SMILES>  (72) 
C[C@@H](CC(=O)Nc1cn[nH]c1C#N)[C@@H]1CCCO1

>  <fragmenstein_outcome>  (72) 
acceptable

>  <energy_score>  (72) 
-34.245167

>  <tags>  (72) 
['Fragmenstein placed']

>  <original ID>  (72) 
CCDQLSZZRRFIMQ-KWQFWETISA-N

>  <alias>  (72) 
None

>  <ref_mols>  (72) 
d0160a,d0254a

>  <HIPPO Pose ID>  (72) 
65441

>  <ref_pdb>  (72) 
d0160a

>  <scratch_subdir>  (72) 
/opt/xchem-fragalysis-2/maxwin/BulkDock/SCRATCH/217042/C22539-P12

>  <HIPPO Compound ID>  (72) 
22539

>  <exports>  (72) 
['/opt/xchem-fragalysis-2/maxwin/BulkDock/OUTPUTS/RdRp_knitwork_primer_grip_n_pocket_pure_split1800_batch008_217042.sdf']

>  <fragmenstein_runtime>  (72) 
2.837815

>  <fragmenstein_error>  (72) 
None

>  <distance_score>  (72) 
0.762572

>  <csv_name>  (72) 
RdRp_knitwork_primer_grip_n_pocket_pure_split1800_batch008.csv

>  <inchikey>  (72) 
CCDQLSZZRRFIMQ-KWQFWETISA-N

>  <SLURM_JOB_NAME>  (72) 
BulkDock.place:Flavi_NS5_RdRp:RdRp_knitwork_primer_grip_n_pocket_pure_split1800_batch008

>  <SLURM_JOB_ID>  (72) 
217042

>  <name>  (72) 
CCDQLSZZRRFIMQ-KWQFWETISA-N

$$$$
65443
     RDKit          3D

 18 19  0  0  0  0  0  0  0  0999 V2000
  -18.5536  -45.1670  -22.9736 C   0  0  0  0  0  0  0  0  0  0  0  0
  -17.2864  -45.2070  -22.1234 C   0  0  1  0  0  0  0  0  0  0  0  0
  -16.7503  -43.8102  -21.7850 C   0  0  0  0  0  0  0  0  0  0  0  0
  -16.2117  -43.0608  -22.9945 C   0  0  0  0  0  0  0  0  0  0  0  0
  -16.4920  -43.3046  -24.1001 O   0  0  0  0  0  0  0  0  0  0  0  0
  -15.3486  -41.9115  -22.4052 N   0  0  0  0  0  0  0  0  0  0  0  0
  -14.7691  -40.8389  -23.0142 C   0  0  0  0  0  0  0  0  0  0  0  0
  -13.9354  -39.8757  -22.3986 C   0  0  0  0  0  0  0  0  0  0  0  0
  -13.5328  -38.9283  -23.2511 N   0  0  0  0  0  0  0  0  0  0  0  0
  -14.1158  -39.3069  -24.4096 N   0  0  0  0  0  0  0  0  0  0  0  0
  -14.8654  -40.4329  -24.3208 C   0  0  0  0  0  0  0  0  0  0  0  0
  -15.5686  -40.8895  -25.4576 C   0  0  0  0  0  0  0  0  0  0  0  0
  -16.1112  -41.0958  -26.4610 N   0  0  0  0  0  0  0  0  0  0  0  0
  -17.5056  -46.0459  -20.8485 C   0  0  2  0  0  0  0  0  0  0  0  0
  -18.6025  -45.5508  -19.9115 C   0  0  0  0  0  0  0  0  0  0  0  0
  -18.1152  -46.0187  -18.5645 C   0  0  0  0  0  0  0  0  0  0  0  0
  -16.6174  -45.8714  -18.6929 C   0  0  0  0  0  0  0  0  0  0  0  0
  -16.2895  -46.0674  -20.0728 O   0  0  0  0  0  0  0  0  0  0  0  0
  2  1  1  1
  2  3  1  0
  3  4  1  0
  4  5  2  0
  4  6  1  0
  6  7  1  0
  7  8  1  0
  8  9  2  0
  9 10  1  0
 10 11  1  0
 11 12  1  0
 12 13  3  0
  2 14  1  0
 14 15  1  1
 15 16  1  0
 16 17  1  0
 17 18  1  0
 11  7  2  0
 18 14  1  0
M  END
>  <fragmenstein_mode>  (73) 
expansion

>  <original SMILES>  (73) 
C[C@@H](CC(=O)Nc1cn[nH]c1C#N)[C@@H]1CCCO1

>  <fragmenstein_outcome>  (73) 
acceptable

>  <energy_score>  (73) 
-33.97969

>  <tags>  (73) 
['Fragmenstein placed']

>  <original ID>  (73) 
CCDQLSZZRRFIMQ-KWQFWETISA-N

>  <alias>  (73) 
None

>  <ref_mols>  (73) 
d0160a,d0254a

>  <HIPPO Pose ID>  (73) 
65443

>  <ref_pdb>  (73) 
d0254a

>  <scratch_subdir>  (73) 
/opt/xchem-fragalysis-2/maxwin/BulkDock/SCRATCH/217042/C22539-P26

>  <HIPPO Compound ID>  (73) 
22539

>  <exports>  (73) 
['/opt/xchem-fragalysis-2/maxwin/BulkDock/OUTPUTS/RdRp_knitwork_primer_grip_n_pocket_pure_split1800_batch008_217042.sdf']

>  <fragmenstein_runtime>  (73) 
4.251361

>  <fragmenstein_error>  (73) 
None

>  <distance_score>  (73) 
0.722332

>  <csv_name>  (73) 
RdRp_knitwork_primer_grip_n_pocket_pure_split1800_batch008.csv

>  <inchikey>  (73) 
CCDQLSZZRRFIMQ-KWQFWETISA-N

>  <SLURM_JOB_NAME>  (73) 
BulkDock.place:Flavi_NS5_RdRp:RdRp_knitwork_primer_grip_n_pocket_pure_split1800_batch008

>  <SLURM_JOB_ID>  (73) 
217042

>  <name>  (73) 
CCDQLSZZRRFIMQ-KWQFWETISA-N

$$$$
65453
     RDKit          3D

 17 18  0  0  0  0  0  0  0  0999 V2000
  -12.3139  -38.1177  -21.7686 C   0  0  0  0  0  0  0  0  0  0  0  0
  -13.1698  -39.2067  -22.1761 N   0  0  0  0  0  0  0  0  0  0  0  0
  -13.3841  -40.3758  -21.5159 C   0  0  0  0  0  0  0  0  0  0  0  0
  -14.2391  -41.1273  -22.3029 C   0  0  0  0  0  0  0  0  0  0  0  0
  -14.7136  -42.4634  -21.9706 C   0  0  0  0  0  0  0  0  0  0  0  0
  -14.4979  -42.9337  -20.8483 O   0  0  0  0  0  0  0  0  0  0  0  0
  -15.4581  -43.2718  -23.0370 C   0  0  0  0  0  0  0  0  0  0  0  0
  -16.1714  -44.3256  -22.3562 N   0  0  0  0  0  0  0  0  0  0  0  0
  -17.6746  -44.4670  -22.0209 C   0  0  0  0  0  0  0  0  0  0  0  0
  -18.5806  -43.7912  -22.3103 O   0  0  0  0  0  0  0  0  0  0  0  0
  -17.7822  -45.7146  -21.0955 C   0  0  2  0  0  0  0  0  0  0  0  0
  -18.6928  -45.4235  -19.9040 C   0  0  0  0  0  0  0  0  0  0  0  0
  -17.8907  -45.8654  -18.7034 C   0  0  0  0  0  0  0  0  0  0  0  0
  -16.4701  -45.7120  -19.1819 C   0  0  0  0  0  0  0  0  0  0  0  0
  -16.4978  -46.1029  -20.5595 O   0  0  0  0  0  0  0  0  0  0  0  0
  -14.4824  -40.2962  -23.4191 C   0  0  0  0  0  0  0  0  0  0  0  0
  -13.8469  -39.1216  -23.3321 N   0  0  0  0  0  0  0  0  0  0  0  0
  1  2  1  0
  2  3  1  0
  3  4  2  0
  4  5  1  0
  5  6  2  0
  5  7  1  0
  7  8  1  0
  8  9  1  0
  9 10  2  0
 11  9  1  6
 11 12  1  0
 12 13  1  0
 13 14  1  0
 14 15  1  0
  4 16  1  0
 16 17  2  0
 17  2  1  0
 15 11  1  0
M  END
>  <fragmenstein_mode>  (74) 
expansion

>  <original SMILES>  (74) 
Cn1cc(C(=O)CNC(=O)[C@@H]2CCCO2)cn1

>  <fragmenstein_outcome>  (74) 
acceptable

>  <energy_score>  (74) 
-32.736155

>  <tags>  (74) 
['Fragmenstein placed']

>  <original ID>  (74) 
GYTSIWMUBRJWHK-JTQLQIEISA-N

>  <alias>  (74) 
None

>  <ref_mols>  (74) 
d0160a,d0254a

>  <HIPPO Pose ID>  (74) 
65453

>  <ref_pdb>  (74) 
d0160a

>  <scratch_subdir>  (74) 
/opt/xchem-fragalysis-2/maxwin/BulkDock/SCRATCH/217042/C22542-P12

>  <HIPPO Compound ID>  (74) 
22542

>  <exports>  (74) 
['/opt/xchem-fragalysis-2/maxwin/BulkDock/OUTPUTS/RdRp_knitwork_primer_grip_n_pocket_pure_split1800_batch008_217042.sdf']

>  <fragmenstein_runtime>  (74) 
3.680274

>  <fragmenstein_error>  (74) 
None

>  <distance_score>  (74) 
0.965328

>  <csv_name>  (74) 
RdRp_knitwork_primer_grip_n_pocket_pure_split1800_batch008.csv

>  <inchikey>  (74) 
GYTSIWMUBRJWHK-JTQLQIEISA-N

>  <SLURM_JOB_NAME>  (74) 
BulkDock.place:Flavi_NS5_RdRp:RdRp_knitwork_primer_grip_n_pocket_pure_split1800_batch008

>  <SLURM_JOB_ID>  (74) 
217042

>  <name>  (74) 
GYTSIWMUBRJWHK-JTQLQIEISA-N

$$$$
65456
     RDKit          3D

 17 18  0  0  0  0  0  0  0  0999 V2000
  -12.1642  -38.3523  -21.9574 C   0  0  0  0  0  0  0  0  0  0  0  0
  -13.1593  -39.3355  -22.3143 N   0  0  0  0  0  0  0  0  0  0  0  0
  -13.4716  -40.4732  -21.6376 C   0  0  0  0  0  0  0  0  0  0  0  0
  -14.4585  -41.1137  -22.3675 C   0  0  0  0  0  0  0  0  0  0  0  0
  -15.0843  -42.3758  -21.9957 C   0  0  0  0  0  0  0  0  0  0  0  0
  -14.7773  -42.9287  -20.9344 O   0  0  0  0  0  0  0  0  0  0  0  0
  -16.1306  -42.9906  -22.9360 C   0  0  0  0  0  0  0  0  0  0  0  0
  -16.7147  -44.1291  -22.2626 N   0  0  0  0  0  0  0  0  0  0  0  0
  -18.1622  -44.3675  -21.7583 C   0  0  0  0  0  0  0  0  0  0  0  0
  -19.1236  -43.7131  -21.8781 O   0  0  0  0  0  0  0  0  0  0  0  0
  -18.1001  -45.6963  -20.9475 C   0  0  2  0  0  0  0  0  0  0  0  0
  -18.9146  -45.5841  -19.6619 C   0  0  0  0  0  0  0  0  0  0  0  0
  -17.9599  -46.0126  -18.5724 C   0  0  0  0  0  0  0  0  0  0  0  0
  -16.6100  -45.7137  -19.1720 C   0  0  0  0  0  0  0  0  0  0  0  0
  -16.7471  -46.0249  -20.5623 O   0  0  0  0  0  0  0  0  0  0  0  0
  -14.6616  -40.2597  -23.4742 C   0  0  0  0  0  0  0  0  0  0  0  0
  -13.8889  -39.1678  -23.4293 N   0  0  0  0  0  0  0  0  0  0  0  0
  1  2  1  0
  2  3  1  0
  3  4  2  0
  4  5  1  0
  5  6  2  0
  5  7  1  0
  7  8  1  0
  8  9  1  0
  9 10  2  0
 11  9  1  1
 11 12  1  0
 12 13  1  0
 13 14  1  0
 14 15  1  0
  4 16  1  0
 16 17  2  0
 17  2  1  0
 15 11  1  0
M  END
>  <fragmenstein_mode>  (75) 
expansion

>  <original SMILES>  (75) 
Cn1cc(C(=O)CNC(=O)[C@@H]2CCCO2)cn1

>  <fragmenstein_outcome>  (75) 
acceptable

>  <energy_score>  (75) 
-32.430878

>  <tags>  (75) 
['Fragmenstein placed']

>  <original ID>  (75) 
GYTSIWMUBRJWHK-JTQLQIEISA-N

>  <alias>  (75) 
None

>  <ref_mols>  (75) 
d0160a,d0254a

>  <HIPPO Pose ID>  (75) 
65456

>  <ref_pdb>  (75) 
d0254a

>  <scratch_subdir>  (75) 
/opt/xchem-fragalysis-2/maxwin/BulkDock/SCRATCH/217042/C22542-P26

>  <HIPPO Compound ID>  (75) 
22542

>  <exports>  (75) 
['/opt/xchem-fragalysis-2/maxwin/BulkDock/OUTPUTS/RdRp_knitwork_primer_grip_n_pocket_pure_split1800_batch008_217042.sdf']

>  <fragmenstein_runtime>  (75) 
3.795911

>  <fragmenstein_error>  (75) 
None

>  <distance_score>  (75) 
0.93703

>  <csv_name>  (75) 
RdRp_knitwork_primer_grip_n_pocket_pure_split1800_batch008.csv

>  <inchikey>  (75) 
GYTSIWMUBRJWHK-JTQLQIEISA-N

>  <SLURM_JOB_NAME>  (75) 
BulkDock.place:Flavi_NS5_RdRp:RdRp_knitwork_primer_grip_n_pocket_pure_split1800_batch008

>  <SLURM_JOB_ID>  (75) 
217042

>  <name>  (75) 
GYTSIWMUBRJWHK-JTQLQIEISA-N

$$$$
65964
     RDKit          3D

 20 22  0  0  0  0  0  0  0  0999 V2000
  -13.6209  -42.8647  -20.6449 C   0  0  0  0  0  0  0  0  0  0  0  0
  -14.7843  -41.9794  -21.1380 C   0  0  0  0  0  0  0  0  0  0  0  0
  -15.1819  -41.0741  -19.9476 C   0  0  0  0  0  0  0  0  0  0  0  0
  -15.9771  -42.7811  -21.4594 N   0  0  0  0  0  0  0  0  0  0  0  0
  -15.7400  -43.8290  -22.4386 C   0  0  0  0  0  0  0  0  0  0  0  0
  -17.0316  -44.2105  -23.0350 C   0  0  0  0  0  0  0  0  0  0  0  0
  -17.5592  -43.7382  -24.2245 C   0  0  0  0  0  0  0  0  0  0  0  0
  -18.7913  -44.3710  -24.3550 C   0  0  0  0  0  0  0  0  0  0  0  0
  -19.0465  -45.1722  -23.3290 N   0  0  0  0  0  0  0  0  0  0  0  0
  -17.9597  -45.0852  -22.5256 N   0  0  0  0  0  0  0  0  0  0  0  0
  -18.0418  -45.8126  -21.2682 C   0  0  0  0  0  0  0  0  0  0  0  0
  -18.6665  -44.9741  -20.1427 C   0  0  0  0  0  0  0  0  0  0  0  0
  -18.0468  -45.5149  -18.8631 C   0  0  0  0  0  0  0  0  0  0  0  0
  -16.6237  -45.8486  -19.2754 C   0  0  0  0  0  0  0  0  0  0  0  0
  -16.7815  -46.4556  -20.6652 C   0  0  0  0  0  0  0  0  0  0  0  0
  -14.3317  -41.1175  -22.3494 C   0  0  1  0  0  0  0  0  0  0  0  0
  -15.3952  -40.2417  -23.0002 C   0  0  0  0  0  0  0  0  0  0  0  0
  -14.5521  -39.1739  -23.6428 C   0  0  0  0  0  0  0  0  0  0  0  0
  -13.4691  -38.9707  -22.6080 C   0  0  0  0  0  0  0  0  0  0  0  0
  -13.2391  -40.2416  -21.9944 O   0  0  0  0  0  0  0  0  0  0  0  0
  1  2  1  0
  2  3  1  0
  2  4  1  0
  4  5  1  0
  5  6  1  0
  6  7  2  0
  7  8  1  0
  8  9  2  0
  9 10  1  0
 10 11  1  0
 11 12  1  0
 12 13  1  0
 13 14  1  0
 14 15  1  0
 16  2  1  1
 16 17  1  0
 17 18  1  0
 18 19  1  0
 19 20  1  0
 10  6  1  0
 15 11  1  0
 20 16  1  0
M  END
>  <fragmenstein_mode>  (76) 
expansion

>  <original SMILES>  (76) 
CC(C)(NCc1ccnn1C1CCCC1)[C@H]1CCCO1

>  <fragmenstein_outcome>  (76) 
acceptable

>  <energy_score>  (76) 
-33.077857

>  <tags>  (76) 
['Fragmenstein placed']

>  <original ID>  (76) 
BGISRZGITIPTJB-OAHLLOKOSA-N

>  <alias>  (76) 
None

>  <ref_mols>  (76) 
d0160a,d0254a

>  <HIPPO Pose ID>  (76) 
65964

>  <ref_pdb>  (76) 
d0254a

>  <scratch_subdir>  (76) 
/opt/xchem-fragalysis-2/maxwin/BulkDock/SCRATCH/217042/C22777-P26

>  <HIPPO Compound ID>  (76) 
22777

>  <exports>  (76) 
['/opt/xchem-fragalysis-2/maxwin/BulkDock/OUTPUTS/RdRp_knitwork_primer_grip_n_pocket_pure_split1800_batch008_217042.sdf']

>  <fragmenstein_runtime>  (76) 
9.728171

>  <fragmenstein_error>  (76) 
None

>  <distance_score>  (76) 
0.914848

>  <csv_name>  (76) 
RdRp_knitwork_primer_grip_n_pocket_pure_split1800_batch008.csv

>  <inchikey>  (76) 
BGISRZGITIPTJB-OAHLLOKOSA-N

>  <SLURM_JOB_NAME>  (76) 
BulkDock.place:Flavi_NS5_RdRp:RdRp_knitwork_primer_grip_n_pocket_pure_split1800_batch008

>  <SLURM_JOB_ID>  (76) 
217042

>  <name>  (76) 
BGISRZGITIPTJB-OAHLLOKOSA-N

$$$$
66089
     RDKit          3D

 19 21  0  0  0  0  0  0  0  0999 V2000
  -18.1957  -43.9931  -23.4421 O   0  0  0  0  0  0  0  0  0  0  0  0
  -17.3678  -44.1977  -22.6487 C   0  0  0  0  0  0  0  0  0  0  0  0
  -15.8888  -43.7839  -22.6232 N   0  0  0  0  0  0  0  0  0  0  0  0
  -15.1357  -42.9499  -23.5219 C   0  0  0  0  0  0  0  0  0  0  0  0
  -15.1488  -41.4944  -23.0517 C   0  0  1  0  0  0  0  0  0  0  0  0
  -14.3468  -41.2281  -21.7881 C   0  0  0  0  0  0  0  0  0  0  0  0
  -14.1531  -39.7319  -21.8575 C   0  0  0  0  0  0  0  0  0  0  0  0
  -14.1342  -39.4402  -23.3450 C   0  0  0  0  0  0  0  0  0  0  0  0
  -14.5655  -40.6218  -24.0279 O   0  0  0  0  0  0  0  0  0  0  0  0
  -17.6749  -44.8816  -21.3763 C   0  0  0  0  0  0  0  0  0  0  0  0
  -18.9422  -45.2883  -20.8969 C   0  0  0  0  0  0  0  0  0  0  0  0
  -18.7256  -45.7940  -19.6410 C   0  0  0  0  0  0  0  0  0  0  0  0
  -17.3968  -45.6178  -19.4039 N   0  0  0  0  0  0  0  0  0  0  0  0
  -16.7538  -45.7496  -18.1093 C   0  0  0  0  0  0  0  0  0  0  0  0
  -15.2285  -45.6827  -18.1654 C   0  0  0  0  0  0  0  0  0  0  0  0
  -14.8836  -44.1920  -18.1484 C   0  0  0  0  0  0  0  0  0  0  0  0
  -16.1138  -43.4740  -17.5910 C   0  0  0  0  0  0  0  0  0  0  0  0
  -17.1089  -44.5672  -17.2050 C   0  0  0  0  0  0  0  0  0  0  0  0
  -16.7209  -45.1260  -20.4575 N   0  0  0  0  0  0  0  0  0  0  0  0
  1  2  2  0
  2  3  1  0
  3  4  1  0
  5  4  1  6
  5  6  1  0
  6  7  1  0
  7  8  1  0
  8  9  1  0
  2 10  1  0
 10 11  1  0
 11 12  2  0
 12 13  1  0
 13 14  1  0
 14 15  1  0
 15 16  1  0
 16 17  1  0
 17 18  1  0
 13 19  1  0
  9  5  1  0
 19 10  2  0
 18 14  1  0
M  END
>  <fragmenstein_mode>  (77) 
expansion

>  <original SMILES>  (77) 
O=C(NC[C@H]1CCCO1)c1ccn(C2CCCC2)n1

>  <fragmenstein_outcome>  (77) 
acceptable

>  <energy_score>  (77) 
-20.060613

>  <tags>  (77) 
['Fragmenstein placed']

>  <original ID>  (77) 
PKXYYGMIJNAOPA-GFCCVEGCSA-N

>  <alias>  (77) 
None

>  <ref_mols>  (77) 
d0160a,d0254a

>  <HIPPO Pose ID>  (77) 
66089

>  <ref_pdb>  (77) 
d0254a

>  <scratch_subdir>  (77) 
/opt/xchem-fragalysis-2/maxwin/BulkDock/SCRATCH/217042/C22810-P26

>  <HIPPO Compound ID>  (77) 
22810

>  <exports>  (77) 
['/opt/xchem-fragalysis-2/maxwin/BulkDock/OUTPUTS/RdRp_knitwork_primer_grip_n_pocket_pure_split1800_batch008_217042.sdf']

>  <fragmenstein_runtime>  (77) 
5.552572

>  <fragmenstein_error>  (77) 
None

>  <distance_score>  (77) 
0.987262

>  <csv_name>  (77) 
RdRp_knitwork_primer_grip_n_pocket_pure_split1800_batch008.csv

>  <inchikey>  (77) 
PKXYYGMIJNAOPA-GFCCVEGCSA-N

>  <SLURM_JOB_NAME>  (77) 
BulkDock.place:Flavi_NS5_RdRp:RdRp_knitwork_primer_grip_n_pocket_pure_split1800_batch008

>  <SLURM_JOB_ID>  (77) 
217042

>  <name>  (77) 
PKXYYGMIJNAOPA-GFCCVEGCSA-N

$$$$
66141
     RDKit          3D

 20 22  0  0  0  0  0  0  0  0999 V2000
  -15.9421  -45.1624  -22.5906 O   0  0  0  0  0  0  0  0  0  0  0  0
  -17.1617  -44.4860  -22.2391 S   0  0  0  0  0  0  0  0  0  0  0  0
  -18.4058  -44.6618  -22.9492 O   0  0  0  0  0  0  0  0  0  0  0  0
  -16.8623  -42.8304  -22.1977 N   0  0  0  0  0  0  0  0  0  0  0  0
  -15.5052  -42.3968  -22.6688 C   0  0  0  0  0  0  0  0  0  0  0  0
  -15.3639  -40.8983  -22.3840 C   0  0  1  0  0  0  0  0  0  0  0  0
  -13.9636  -40.4497  -22.0055 C   0  0  0  0  0  0  0  0  0  0  0  0
  -13.8963  -39.0639  -22.5908 C   0  0  0  0  0  0  0  0  0  0  0  0
  -14.7228  -39.2082  -23.8504 C   0  0  0  0  0  0  0  0  0  0  0  0
  -15.7447  -40.1659  -23.5610 O   0  0  0  0  0  0  0  0  0  0  0  0
  -17.5004  -45.0358  -20.6003 C   0  0  0  0  0  0  0  0  0  0  0  0
  -18.5437  -45.7902  -20.0899 C   0  0  0  0  0  0  0  0  0  0  0  0
  -18.2615  -45.9700  -18.7312 C   0  0  0  0  0  0  0  0  0  0  0  0
  -17.1247  -45.3756  -18.3747 N   0  0  0  0  0  0  0  0  0  0  0  0
  -16.6826  -44.8014  -19.5199 N   0  0  0  0  0  0  0  0  0  0  0  0
  -15.5099  -43.9591  -19.4416 C   0  0  0  0  0  0  0  0  0  0  0  0
  -15.7687  -42.6034  -18.7701 C   0  0  0  0  0  0  0  0  0  0  0  0
  -14.4750  -42.2369  -18.0409 C   0  0  0  0  0  0  0  0  0  0  0  0
  -13.4660  -43.3135  -18.4139 C   0  0  0  0  0  0  0  0  0  0  0  0
  -14.3250  -44.5396  -18.6795 C   0  0  0  0  0  0  0  0  0  0  0  0
  1  2  2  0
  2  3  2  0
  2  4  1  0
  4  5  1  0
  6  5  1  6
  6  7  1  0
  7  8  1  0
  8  9  1  0
  9 10  1  0
  2 11  1  0
 11 12  2  0
 12 13  1  0
 13 14  2  0
 14 15  1  0
 15 16  1  0
 16 17  1  0
 17 18  1  0
 18 19  1  0
 19 20  1  0
 10  6  1  0
 15 11  1  0
 20 16  1  0
M  END
>  <fragmenstein_mode>  (78) 
expansion

>  <original SMILES>  (78) 
O=S(=O)(NC[C@H]1CCCO1)c1ccnn1C1CCCC1

>  <fragmenstein_outcome>  (78) 
acceptable

>  <energy_score>  (78) 
-50.278037

>  <tags>  (78) 
['Fragmenstein placed']

>  <original ID>  (78) 
NENRSKFHYRSTBY-GFCCVEGCSA-N

>  <alias>  (78) 
None

>  <ref_mols>  (78) 
d0160a,d0254a

>  <HIPPO Pose ID>  (78) 
66141

>  <ref_pdb>  (78) 
d0160a

>  <scratch_subdir>  (78) 
/opt/xchem-fragalysis-2/maxwin/BulkDock/SCRATCH/217042/C22883-P12

>  <HIPPO Compound ID>  (78) 
22883

>  <exports>  (78) 
['/opt/xchem-fragalysis-2/maxwin/BulkDock/OUTPUTS/RdRp_knitwork_primer_grip_n_pocket_pure_split1800_batch008_217042.sdf']

>  <fragmenstein_runtime>  (78) 
5.850543

>  <fragmenstein_error>  (78) 
None

>  <distance_score>  (78) 
0.867629

>  <csv_name>  (78) 
RdRp_knitwork_primer_grip_n_pocket_pure_split1800_batch008.csv

>  <inchikey>  (78) 
NENRSKFHYRSTBY-GFCCVEGCSA-N

>  <SLURM_JOB_NAME>  (78) 
BulkDock.place:Flavi_NS5_RdRp:RdRp_knitwork_primer_grip_n_pocket_pure_split1800_batch008

>  <SLURM_JOB_ID>  (78) 
217042

>  <name>  (78) 
NENRSKFHYRSTBY-GFCCVEGCSA-N

$$$$
66143
     RDKit          3D

 20 22  0  0  0  0  0  0  0  0999 V2000
  -16.2085  -45.2665  -22.6245 O   0  0  0  0  0  0  0  0  0  0  0  0
  -17.3792  -44.5319  -22.2333 S   0  0  0  0  0  0  0  0  0  0  0  0
  -18.6467  -44.6299  -22.9207 O   0  0  0  0  0  0  0  0  0  0  0  0
  -17.0218  -42.8875  -22.1601 N   0  0  0  0  0  0  0  0  0  0  0  0
  -15.9769  -42.4480  -23.1341 C   0  0  0  0  0  0  0  0  0  0  0  0
  -15.6087  -40.9898  -22.8655 C   0  0  1  0  0  0  0  0  0  0  0  0
  -14.4064  -40.7661  -21.9656 C   0  0  0  0  0  0  0  0  0  0  0  0
  -13.9703  -39.3771  -22.3598 C   0  0  0  0  0  0  0  0  0  0  0  0
  -14.3976  -39.2686  -23.8094 C   0  0  0  0  0  0  0  0  0  0  0  0
  -15.2694  -40.3573  -24.1017 O   0  0  0  0  0  0  0  0  0  0  0  0
  -17.7191  -45.0784  -20.5986 C   0  0  0  0  0  0  0  0  0  0  0  0
  -18.9160  -45.5448  -20.0735 C   0  0  0  0  0  0  0  0  0  0  0  0
  -18.6332  -45.9765  -18.7802 C   0  0  0  0  0  0  0  0  0  0  0  0
  -17.3587  -45.7797  -18.4662 N   0  0  0  0  0  0  0  0  0  0  0  0
  -16.8115  -45.1913  -19.5675 N   0  0  0  0  0  0  0  0  0  0  0  0
  -15.3873  -44.9128  -19.4587 C   0  0  0  0  0  0  0  0  0  0  0  0
  -14.7430  -43.8141  -20.2902 C   0  0  0  0  0  0  0  0  0  0  0  0
  -13.4432  -43.5076  -19.5667 C   0  0  0  0  0  0  0  0  0  0  0  0
  -13.8716  -43.4611  -18.1205 C   0  0  0  0  0  0  0  0  0  0  0  0
  -14.9831  -44.5019  -18.0190 C   0  0  0  0  0  0  0  0  0  0  0  0
  1  2  2  0
  2  3  2  0
  2  4  1  0
  4  5  1  0
  6  5  1  6
  6  7  1  0
  7  8  1  0
  8  9  1  0
  9 10  1  0
  2 11  1  0
 11 12  2  0
 12 13  1  0
 13 14  2  0
 14 15  1  0
 15 16  1  0
 16 17  1  0
 17 18  1  0
 18 19  1  0
 19 20  1  0
 10  6  1  0
 15 11  1  0
 20 16  1  0
M  END
>  <fragmenstein_mode>  (79) 
expansion

>  <original SMILES>  (79) 
O=S(=O)(NC[C@H]1CCCO1)c1ccnn1C1CCCC1

>  <fragmenstein_outcome>  (79) 
acceptable

>  <energy_score>  (79) 
-41.830293

>  <tags>  (79) 
['Fragmenstein placed']

>  <original ID>  (79) 
NENRSKFHYRSTBY-GFCCVEGCSA-N

>  <alias>  (79) 
None

>  <ref_mols>  (79) 
d0160a,d0254a

>  <HIPPO Pose ID>  (79) 
66143

>  <ref_pdb>  (79) 
d0254a

>  <scratch_subdir>  (79) 
/opt/xchem-fragalysis-2/maxwin/BulkDock/SCRATCH/217042/C22883-P26

>  <HIPPO Compound ID>  (79) 
22883

>  <exports>  (79) 
['/opt/xchem-fragalysis-2/maxwin/BulkDock/OUTPUTS/RdRp_knitwork_primer_grip_n_pocket_pure_split1800_batch008_217042.sdf']

>  <fragmenstein_runtime>  (79) 
4.670086

>  <fragmenstein_error>  (79) 
None

>  <distance_score>  (79) 
0.850567

>  <csv_name>  (79) 
RdRp_knitwork_primer_grip_n_pocket_pure_split1800_batch008.csv

>  <inchikey>  (79) 
NENRSKFHYRSTBY-GFCCVEGCSA-N

>  <SLURM_JOB_NAME>  (79) 
BulkDock.place:Flavi_NS5_RdRp:RdRp_knitwork_primer_grip_n_pocket_pure_split1800_batch008

>  <SLURM_JOB_ID>  (79) 
217042

>  <name>  (79) 
NENRSKFHYRSTBY-GFCCVEGCSA-N

$$$$
66265
     RDKit          3D

 20 22  0  0  0  0  0  0  0  0999 V2000
  -16.1123  -45.3702  -22.6853 O   0  0  0  0  0  0  0  0  0  0  0  0
  -17.2778  -44.5707  -22.4180 S   0  0  0  0  0  0  0  0  0  0  0  0
  -18.5200  -44.7191  -23.1365 O   0  0  0  0  0  0  0  0  0  0  0  0
  -16.8078  -42.9593  -22.5633 N   0  0  0  0  0  0  0  0  0  0  0  0
  -15.4143  -42.6623  -22.1307 C   0  0  0  0  0  0  0  0  0  0  0  0
  -15.1685  -41.1591  -22.2044 C   0  0  2  0  0  0  0  0  0  0  0  0
  -15.0224  -40.6467  -23.6213 C   0  0  0  0  0  0  0  0  0  0  0  0
  -14.2986  -39.3500  -23.3903 C   0  0  0  0  0  0  0  0  0  0  0  0
  -13.4269  -39.6291  -22.1828 C   0  0  0  0  0  0  0  0  0  0  0  0
  -13.9491  -40.7981  -21.5383 O   0  0  0  0  0  0  0  0  0  0  0  0
  -17.6479  -44.9124  -20.7932 C   0  0  0  0  0  0  0  0  0  0  0  0
  -18.9257  -45.0971  -20.2576 C   0  0  0  0  0  0  0  0  0  0  0  0
  -18.8911  -45.2450  -18.9302 N   0  0  0  0  0  0  0  0  0  0  0  0
  -17.5777  -45.2002  -18.6357 N   0  0  0  0  0  0  0  0  0  0  0  0
  -17.1434  -45.1794  -17.2554 C   0  0  0  0  0  0  0  0  0  0  0  0
  -17.5099  -43.8670  -16.5371 C   0  0  0  0  0  0  0  0  0  0  0  0
  -18.2780  -44.2804  -15.2879 C   0  0  0  0  0  0  0  0  0  0  0  0
  -17.7954  -45.6911  -15.0044 C   0  0  0  0  0  0  0  0  0  0  0  0
  -17.7042  -46.3120  -16.3882 C   0  0  0  0  0  0  0  0  0  0  0  0
  -16.7812  -45.0334  -19.7300 C   0  0  0  0  0  0  0  0  0  0  0  0
  1  2  2  0
  2  3  2  0
  2  4  1  0
  4  5  1  0
  6  5  1  6
  6  7  1  0
  7  8  1  0
  8  9  1  0
  9 10  1  0
  2 11  1  0
 11 12  1  0
 12 13  2  0
 13 14  1  0
 14 15  1  0
 15 16  1  0
 16 17  1  0
 17 18  1  0
 18 19  1  0
 14 20  1  0
 10  6  1  0
 20 11  2  0
 19 15  1  0
M  END
>  <fragmenstein_mode>  (80) 
expansion

>  <original SMILES>  (80) 
O=S(=O)(NC[C@@H]1CCCO1)c1cnn(C2CCCC2)c1

>  <fragmenstein_outcome>  (80) 
acceptable

>  <energy_score>  (80) 
-41.574015

>  <tags>  (80) 
['Fragmenstein placed']

>  <original ID>  (80) 
JUSGTJATUSPCAX-LBPRGKRZSA-N

>  <alias>  (80) 
None

>  <ref_mols>  (80) 
d0160a,d0254a

>  <HIPPO Pose ID>  (80) 
66265

>  <ref_pdb>  (80) 
d0160a

>  <scratch_subdir>  (80) 
/opt/xchem-fragalysis-2/maxwin/BulkDock/SCRATCH/217042/C23189-P12

>  <HIPPO Compound ID>  (80) 
23189

>  <exports>  (80) 
['/opt/xchem-fragalysis-2/maxwin/BulkDock/OUTPUTS/RdRp_knitwork_primer_grip_n_pocket_pure_split1800_batch008_217042.sdf']

>  <fragmenstein_runtime>  (80) 
8.494449

>  <fragmenstein_error>  (80) 
None

>  <distance_score>  (80) 
0.877785

>  <csv_name>  (80) 
RdRp_knitwork_primer_grip_n_pocket_pure_split1800_batch008.csv

>  <inchikey>  (80) 
JUSGTJATUSPCAX-LBPRGKRZSA-N

>  <SLURM_JOB_NAME>  (80) 
BulkDock.place:Flavi_NS5_RdRp:RdRp_knitwork_primer_grip_n_pocket_pure_split1800_batch008

>  <SLURM_JOB_ID>  (80) 
217042

>  <name>  (80) 
JUSGTJATUSPCAX-LBPRGKRZSA-N

$$$$
66271
     RDKit          3D

 20 22  0  0  0  0  0  0  0  0999 V2000
  -16.2935  -45.3535  -22.7418 O   0  0  0  0  0  0  0  0  0  0  0  0
  -17.4080  -44.5201  -22.3795 S   0  0  0  0  0  0  0  0  0  0  0  0
  -18.6942  -44.5883  -23.0345 O   0  0  0  0  0  0  0  0  0  0  0  0
  -16.9003  -42.9174  -22.4646 N   0  0  0  0  0  0  0  0  0  0  0  0
  -15.4602  -42.6732  -22.1800 C   0  0  0  0  0  0  0  0  0  0  0  0
  -15.1679  -41.1769  -22.2799 C   0  0  2  0  0  0  0  0  0  0  0  0
  -15.0450  -40.6867  -23.7073 C   0  0  0  0  0  0  0  0  0  0  0  0
  -14.2817  -39.4040  -23.5193 C   0  0  0  0  0  0  0  0  0  0  0  0
  -13.4152  -39.6629  -22.3027 C   0  0  0  0  0  0  0  0  0  0  0  0
  -13.9183  -40.8406  -21.6579 O   0  0  0  0  0  0  0  0  0  0  0  0
  -17.7245  -44.9320  -20.7570 C   0  0  0  0  0  0  0  0  0  0  0  0
  -18.9653  -45.3275  -20.2496 C   0  0  0  0  0  0  0  0  0  0  0  0
  -18.9331  -45.4937  -18.9270 N   0  0  0  0  0  0  0  0  0  0  0  0
  -17.6525  -45.2461  -18.5996 N   0  0  0  0  0  0  0  0  0  0  0  0
  -17.2500  -45.2092  -17.2011 C   0  0  0  0  0  0  0  0  0  0  0  0
  -17.6293  -43.8797  -16.5415 C   0  0  0  0  0  0  0  0  0  0  0  0
  -19.0205  -44.1275  -15.9801 C   0  0  0  0  0  0  0  0  0  0  0  0
  -18.9641  -45.5615  -15.4756 C   0  0  0  0  0  0  0  0  0  0  0  0
  -17.9129  -46.2820  -16.3238 C   0  0  0  0  0  0  0  0  0  0  0  0
  -16.8696  -44.9355  -19.6766 C   0  0  0  0  0  0  0  0  0  0  0  0
  1  2  2  0
  2  3  2  0
  2  4  1  0
  4  5  1  0
  6  5  1  6
  6  7  1  0
  7  8  1  0
  8  9  1  0
  9 10  1  0
  2 11  1  0
 11 12  1  0
 12 13  2  0
 13 14  1  0
 14 15  1  0
 15 16  1  0
 16 17  1  0
 17 18  1  0
 18 19  1  0
 14 20  1  0
 10  6  1  0
 20 11  2  0
 19 15  1  0
M  END
>  <fragmenstein_mode>  (81) 
expansion

>  <original SMILES>  (81) 
O=S(=O)(NC[C@@H]1CCCO1)c1cnn(C2CCCC2)c1

>  <fragmenstein_outcome>  (81) 
acceptable

>  <energy_score>  (81) 
-40.746249

>  <tags>  (81) 
['Fragmenstein placed']

>  <original ID>  (81) 
JUSGTJATUSPCAX-LBPRGKRZSA-N

>  <alias>  (81) 
None

>  <ref_mols>  (81) 
d0160a,d0254a

>  <HIPPO Pose ID>  (81) 
66271

>  <ref_pdb>  (81) 
d0254a

>  <scratch_subdir>  (81) 
/opt/xchem-fragalysis-2/maxwin/BulkDock/SCRATCH/217042/C23189-P26

>  <HIPPO Compound ID>  (81) 
23189

>  <exports>  (81) 
['/opt/xchem-fragalysis-2/maxwin/BulkDock/OUTPUTS/RdRp_knitwork_primer_grip_n_pocket_pure_split1800_batch008_217042.sdf']

>  <fragmenstein_runtime>  (81) 
9.119996

>  <fragmenstein_error>  (81) 
None

>  <distance_score>  (81) 
0.873764

>  <csv_name>  (81) 
RdRp_knitwork_primer_grip_n_pocket_pure_split1800_batch008.csv

>  <inchikey>  (81) 
JUSGTJATUSPCAX-LBPRGKRZSA-N

>  <SLURM_JOB_NAME>  (81) 
BulkDock.place:Flavi_NS5_RdRp:RdRp_knitwork_primer_grip_n_pocket_pure_split1800_batch008

>  <SLURM_JOB_ID>  (81) 
217042

>  <name>  (81) 
JUSGTJATUSPCAX-LBPRGKRZSA-N

$$$$
67005
     RDKit          3D

 14 15  0  0  0  0  0  0  0  0999 V2000
  -18.2538  -38.5696  -26.7574 Cl  0  0  0  0  0  0  0  0  0  0  0  0
  -17.2347  -39.8957  -26.4452 C   0  0  0  0  0  0  0  0  0  0  0  0
  -16.0625  -39.6685  -25.7629 C   0  0  0  0  0  0  0  0  0  0  0  0
  -15.4115  -40.7700  -25.2490 C   0  0  0  0  0  0  0  0  0  0  0  0
  -14.2386  -40.6541  -24.5215 N   0  0  0  0  0  0  0  0  0  0  0  0
  -14.2341  -39.7991  -23.3454 C   0  0  0  0  0  0  0  0  0  0  0  0
  -14.1728  -40.6631  -22.1528 C   0  0  0  0  0  0  0  0  0  0  0  0
  -13.2390  -40.8545  -21.1646 C   0  0  0  0  0  0  0  0  0  0  0  0
  -13.7140  -41.9732  -20.4552 C   0  0  0  0  0  0  0  0  0  0  0  0
  -14.8897  -42.4166  -20.9062 N   0  0  0  0  0  0  0  0  0  0  0  0
  -15.1308  -41.6203  -21.9539 N   0  0  0  0  0  0  0  0  0  0  0  0
  -15.9002  -42.0409  -25.5367 C   0  0  0  0  0  0  0  0  0  0  0  0
  -17.0599  -42.1560  -26.2774 C   0  0  0  0  0  0  0  0  0  0  0  0
  -17.7606  -41.1034  -26.7364 N   0  0  0  0  0  0  0  0  0  0  0  0
  1  2  1  0
  2  3  2  0
  3  4  1  0
  4  5  1  0
  5  6  1  0
  6  7  1  0
  7  8  2  0
  8  9  1  0
  9 10  2  0
 10 11  1  0
  4 12  2  0
 12 13  1  0
 13 14  2  0
 14  2  1  0
 11  7  1  0
M  END
>  <fragmenstein_mode>  (82) 
expansion

>  <original SMILES>  (82) 
Clc1cc(NCc2ccn[nH]2)ccn1

>  <fragmenstein_outcome>  (82) 
acceptable

>  <energy_score>  (82) 
-21.443638

>  <tags>  (82) 
['Fragmenstein placed']

>  <original ID>  (82) 
JUQITCQTBRXLFI-UHFFFAOYSA-N

>  <alias>  (82) 
None

>  <ref_mols>  (82) 
d0160a,d0191a

>  <HIPPO Pose ID>  (82) 
67005

>  <ref_pdb>  (82) 
d0160a

>  <scratch_subdir>  (82) 
/opt/xchem-fragalysis-2/maxwin/BulkDock/SCRATCH/217965/C67005-P104

>  <HIPPO Compound ID>  (82) 
18236

>  <exports>  (82) 
nan

>  <fragmenstein_runtime>  (82) 
1.309471

>  <fragmenstein_error>  (82) 
None

>  <distance_score>  (82) 
1.695181

>  <csv_name>  (82) 
green_site_rna_tunnel_fstein_bulkdock_input_split1000_batch000.csv

>  <inchikey>  (82) 
JUQITCQTBRXLFI-UHFFFAOYSA-N

>  <SLURM_JOB_NAME>  (82) 
BulkDock.place:Flavi_NS5_RdRp:green_site_rna_tunnel_fstein_bulkdock_input_split1000_batch000

>  <SLURM_JOB_ID>  (82) 
217965

>  <name>  (82) 
JUQITCQTBRXLFI-UHFFFAOYSA-N

$$$$
67018
     RDKit          3D

 14 15  0  0  0  0  0  0  0  0999 V2000
  -15.9257  -42.9079  -24.6269 F   0  0  0  0  0  0  0  0  0  0  0  0
  -16.2714  -41.9216  -25.4666 C   0  0  0  0  0  0  0  0  0  0  0  0
  -17.3800  -42.0722  -26.2767 C   0  0  0  0  0  0  0  0  0  0  0  0
  -17.8133  -41.1339  -27.1501 N   0  0  0  0  0  0  0  0  0  0  0  0
  -17.0957  -39.9873  -27.1777 C   0  0  0  0  0  0  0  0  0  0  0  0
  -15.9910  -39.7336  -26.3816 C   0  0  0  0  0  0  0  0  0  0  0  0
  -15.5438  -40.7329  -25.5248 C   0  0  0  0  0  0  0  0  0  0  0  0
  -14.4184  -40.4970  -24.7352 N   0  0  0  0  0  0  0  0  0  0  0  0
  -14.6100  -39.7670  -23.4948 C   0  0  0  0  0  0  0  0  0  0  0  0
  -14.4143  -40.6604  -22.3347 C   0  0  0  0  0  0  0  0  0  0  0  0
  -13.3842  -40.8185  -21.4379 C   0  0  0  0  0  0  0  0  0  0  0  0
  -13.7329  -41.9690  -20.7089 C   0  0  0  0  0  0  0  0  0  0  0  0
  -14.9236  -42.4607  -21.0579 N   0  0  0  0  0  0  0  0  0  0  0  0
  -15.3090  -41.6578  -22.0564 N   0  0  0  0  0  0  0  0  0  0  0  0
  1  2  1  0
  2  3  2  0
  3  4  1  0
  4  5  2  0
  5  6  1  0
  6  7  2  0
  7  8  1  0
  8  9  1  0
  9 10  1  0
 10 11  2  0
 11 12  1  0
 12 13  2  0
 13 14  1  0
  7  2  1  0
 14 10  1  0
M  END
>  <fragmenstein_mode>  (83) 
expansion

>  <original SMILES>  (83) 
Fc1cnccc1NCc1ccn[nH]1

>  <fragmenstein_outcome>  (83) 
acceptable

>  <energy_score>  (83) 
-21.232766

>  <tags>  (83) 
['Fragmenstein placed']

>  <original ID>  (83) 
FMJBOIXFOZOLDO-UHFFFAOYSA-N

>  <alias>  (83) 
None

>  <ref_mols>  (83) 
d0160a,d0191a

>  <HIPPO Pose ID>  (83) 
67018

>  <ref_pdb>  (83) 
d0160a

>  <scratch_subdir>  (83) 
/opt/xchem-fragalysis-2/maxwin/BulkDock/SCRATCH/217965/C67018-P129

>  <HIPPO Compound ID>  (83) 
18302

>  <exports>  (83) 
nan

>  <fragmenstein_runtime>  (83) 
1.929091

>  <fragmenstein_error>  (83) 
None

>  <distance_score>  (83) 
1.608002

>  <csv_name>  (83) 
green_site_rna_tunnel_fstein_bulkdock_input_split1000_batch000.csv

>  <inchikey>  (83) 
FMJBOIXFOZOLDO-UHFFFAOYSA-N

>  <SLURM_JOB_NAME>  (83) 
BulkDock.place:Flavi_NS5_RdRp:green_site_rna_tunnel_fstein_bulkdock_input_split1000_batch000

>  <SLURM_JOB_ID>  (83) 
217965

>  <name>  (83) 
FMJBOIXFOZOLDO-UHFFFAOYSA-N

$$$$
67085
     RDKit          3D

 22 24  0  0  0  0  0  0  0  0999 V2000
  -19.6208  -34.8527  -19.5885 C   0  0  0  0  0  0  0  0  0  0  0  0
  -19.0940  -34.4724  -20.7600 C   0  0  0  0  0  0  0  0  0  0  0  0
  -19.8538  -34.3799  -22.0409 C   0  0  0  0  0  0  0  0  0  0  0  0
  -19.4276  -35.4394  -22.9012 N   0  0  0  0  0  0  0  0  0  0  0  0
  -19.7731  -35.7335  -24.3695 C   0  0  0  0  0  0  0  0  0  0  0  0
  -20.5195  -35.2042  -25.0902 O   0  0  0  0  0  0  0  0  0  0  0  0
  -18.9902  -36.8838  -24.8918 C   0  0  0  0  0  0  0  0  0  0  0  0
  -17.6510  -37.0795  -24.6054 C   0  0  0  0  0  0  0  0  0  0  0  0
  -16.9685  -38.1467  -25.1937 C   0  0  0  0  0  0  0  0  0  0  0  0
  -17.6298  -39.0454  -26.0275 C   0  0  0  0  0  0  0  0  0  0  0  0
  -17.0448  -40.1920  -26.5608 N   0  0  0  0  0  0  0  0  0  0  0  0
  -17.7074  -41.4186  -26.1037 C   0  0  0  0  0  0  0  0  0  0  0  0
  -16.9049  -41.8315  -24.8733 C   0  0  0  0  0  0  0  0  0  0  0  0
  -15.4670  -41.3657  -25.1617 C   0  0  2  0  0  0  0  0  0  0  0  0
  -14.8134  -40.7766  -23.9428 C   0  0  0  0  0  0  0  0  0  0  0  0
  -14.7519  -41.2177  -22.6351 C   0  0  0  0  0  0  0  0  0  0  0  0
  -13.9522  -40.2745  -21.9639 C   0  0  0  0  0  0  0  0  0  0  0  0
  -13.5376  -39.2973  -22.7728 N   0  0  0  0  0  0  0  0  0  0  0  0
  -14.0220  -39.6600  -23.9717 N   0  0  0  0  0  0  0  0  0  0  0  0
  -15.6057  -40.4310  -26.3897 C   0  0  0  0  0  0  0  0  0  0  0  0
  -18.9285  -38.8245  -26.3430 N   0  0  0  0  0  0  0  0  0  0  0  0
  -19.5759  -37.7717  -25.7715 C   0  0  0  0  0  0  0  0  0  0  0  0
  1  2  2  0
  2  3  1  0
  3  4  1  0
  4  5  1  0
  5  6  2  0
  5  7  1  0
  7  8  2  0
  8  9  1  0
  9 10  2  0
 10 11  1  0
 11 12  1  0
 12 13  1  0
 13 14  1  0
 14 15  1  1
 15 16  2  0
 16 17  1  0
 17 18  2  0
 18 19  1  0
 14 20  1  0
 10 21  1  0
 21 22  2  0
 22  7  1  0
 20 11  1  0
 19 15  1  0
M  END
>  <fragmenstein_mode>  (84) 
expansion

>  <original SMILES>  (84) 
C=CCNC(=O)c1ccc(N2CC[C@H](c3ccn[nH]3)C2)nc1

>  <fragmenstein_outcome>  (84) 
acceptable

>  <energy_score>  (84) 
-53.57873

>  <tags>  (84) 
['Fragmenstein placed']

>  <original ID>  (84) 
GEAOQYLHMSKZNR-ZDUSSCGKSA-N

>  <alias>  (84) 
None

>  <ref_mols>  (84) 
d0160a,d0191a

>  <HIPPO Pose ID>  (84) 
67085

>  <ref_pdb>  (84) 
d0160a

>  <scratch_subdir>  (84) 
/opt/xchem-fragalysis-2/maxwin/BulkDock/SCRATCH/217965/C67085-P113

>  <HIPPO Compound ID>  (84) 
18620

>  <exports>  (84) 
nan

>  <fragmenstein_runtime>  (84) 
3.233842

>  <fragmenstein_error>  (84) 
None

>  <distance_score>  (84) 
0.91179

>  <csv_name>  (84) 
green_site_rna_tunnel_fstein_bulkdock_input_split1000_batch000.csv

>  <inchikey>  (84) 
GEAOQYLHMSKZNR-ZDUSSCGKSA-N

>  <SLURM_JOB_NAME>  (84) 
BulkDock.place:Flavi_NS5_RdRp:green_site_rna_tunnel_fstein_bulkdock_input_split1000_batch000

>  <SLURM_JOB_ID>  (84) 
217965

>  <name>  (84) 
GEAOQYLHMSKZNR-ZDUSSCGKSA-N

$$$$
67118
     RDKit          3D

 17 19  0  0  0  0  0  0  0  0999 V2000
  -19.9854  -35.6740  -24.3050 Cl  0  0  0  0  0  0  0  0  0  0  0  0
  -19.0583  -36.9674  -24.9403 C   0  0  0  0  0  0  0  0  0  0  0  0
  -17.7197  -37.1010  -24.6435 C   0  0  0  0  0  0  0  0  0  0  0  0
  -16.9941  -38.1501  -25.2144 C   0  0  0  0  0  0  0  0  0  0  0  0
  -17.6211  -39.0836  -26.0401 C   0  0  0  0  0  0  0  0  0  0  0  0
  -16.9987  -40.2123  -26.5657 N   0  0  0  0  0  0  0  0  0  0  0  0
  -17.6372  -41.4590  -26.1258 C   0  0  0  0  0  0  0  0  0  0  0  0
  -16.8495  -41.8513  -24.8798 C   0  0  0  0  0  0  0  0  0  0  0  0
  -15.4182  -41.3561  -25.1477 C   0  0  2  0  0  0  0  0  0  0  0  0
  -14.7883  -40.7613  -23.9207 C   0  0  0  0  0  0  0  0  0  0  0  0
  -14.7323  -41.2031  -22.6134 C   0  0  0  0  0  0  0  0  0  0  0  0
  -13.9420  -40.2552  -21.9370 C   0  0  0  0  0  0  0  0  0  0  0  0
  -13.5272  -39.2755  -22.7433 N   0  0  0  0  0  0  0  0  0  0  0  0
  -14.0127  -39.6342  -23.9420 N   0  0  0  0  0  0  0  0  0  0  0  0
  -15.5585  -40.4160  -26.3715 C   0  0  0  0  0  0  0  0  0  0  0  0
  -18.9283  -38.9216  -26.3557 N   0  0  0  0  0  0  0  0  0  0  0  0
  -19.6169  -37.9002  -25.7859 C   0  0  0  0  0  0  0  0  0  0  0  0
  1  2  1  0
  2  3  2  0
  3  4  1  0
  4  5  2  0
  5  6  1  0
  6  7  1  0
  7  8  1  0
  8  9  1  0
  9 10  1  1
 10 11  2  0
 11 12  1  0
 12 13  2  0
 13 14  1  0
  9 15  1  0
  5 16  1  0
 16 17  2  0
 17  2  1  0
 15  6  1  0
 14 10  1  0
M  END
>  <fragmenstein_mode>  (85) 
expansion

>  <original SMILES>  (85) 
Clc1ccc(N2CC[C@H](c3ccn[nH]3)C2)nc1

>  <fragmenstein_outcome>  (85) 
acceptable

>  <energy_score>  (85) 
-11.152099

>  <tags>  (85) 
['Fragmenstein placed']

>  <original ID>  (85) 
FHKULKBQABHKGZ-VIFPVBQESA-N

>  <alias>  (85) 
None

>  <ref_mols>  (85) 
d0160a,d0191a

>  <HIPPO Pose ID>  (85) 
67118

>  <ref_pdb>  (85) 
d0160a

>  <scratch_subdir>  (85) 
/opt/xchem-fragalysis-2/maxwin/BulkDock/SCRATCH/217042/C18764-P12

>  <HIPPO Compound ID>  (85) 
18764

>  <exports>  (85) 
['/opt/xchem-fragalysis-2/maxwin/BulkDock/OUTPUTS/RdRp_knitwork_primer_grip_n_pocket_pure_split1800_batch008_217042.sdf']

>  <fragmenstein_runtime>  (85) 
1.990679

>  <fragmenstein_error>  (85) 
None

>  <distance_score>  (85) 
0.907587

>  <csv_name>  (85) 
RdRp_knitwork_primer_grip_n_pocket_pure_split1800_batch008.csv

>  <inchikey>  (85) 
FHKULKBQABHKGZ-VIFPVBQESA-N

>  <SLURM_JOB_NAME>  (85) 
BulkDock.place:Flavi_NS5_RdRp:RdRp_knitwork_primer_grip_n_pocket_pure_split1800_batch008

>  <SLURM_JOB_ID>  (85) 
217042

>  <name>  (85) 
FHKULKBQABHKGZ-VIFPVBQESA-N

$$$$
67138
     RDKit          3D

 21 23  0  0  0  0  0  0  0  0999 V2000
  -21.0292  -37.1344  -22.0493 C   0  0  0  0  0  0  0  0  0  0  0  0
  -21.2531  -36.5579  -23.3718 N   0  0  0  0  0  0  0  0  0  0  0  0
  -19.9971  -35.6924  -24.0773 S   0  0  0  0  0  0  0  0  0  0  0  0
  -20.5843  -34.9344  -25.1604 O   0  0  0  0  0  0  0  0  0  0  0  0
  -19.2499  -35.0593  -23.0159 O   0  0  0  0  0  0  0  0  0  0  0  0
  -19.0182  -36.9502  -24.8089 C   0  0  0  0  0  0  0  0  0  0  0  0
  -17.6852  -37.1155  -24.4944 C   0  0  0  0  0  0  0  0  0  0  0  0
  -16.9713  -38.1393  -25.1196 C   0  0  0  0  0  0  0  0  0  0  0  0
  -17.6021  -39.0123  -26.0082 C   0  0  0  0  0  0  0  0  0  0  0  0
  -16.9968  -40.1388  -26.5628 N   0  0  0  0  0  0  0  0  0  0  0  0
  -17.6543  -41.3830  -26.1449 C   0  0  0  0  0  0  0  0  0  0  0  0
  -16.8741  -41.8116  -24.9060 C   0  0  0  0  0  0  0  0  0  0  0  0
  -15.4347  -41.3346  -25.1635 C   0  0  2  0  0  0  0  0  0  0  0  0
  -14.7962  -40.7760  -23.9236 C   0  0  0  0  0  0  0  0  0  0  0  0
  -14.7528  -41.2417  -22.6241 C   0  0  0  0  0  0  0  0  0  0  0  0
  -13.9502  -40.3190  -21.9276 C   0  0  0  0  0  0  0  0  0  0  0  0
  -13.5161  -39.3325  -22.7147 N   0  0  0  0  0  0  0  0  0  0  0  0
  -13.9990  -39.6635  -23.9222 N   0  0  0  0  0  0  0  0  0  0  0  0
  -15.5592  -40.3672  -26.3684 C   0  0  0  0  0  0  0  0  0  0  0  0
  -18.8978  -38.7995  -26.3478 N   0  0  0  0  0  0  0  0  0  0  0  0
  -19.5792  -37.7959  -25.7368 C   0  0  0  0  0  0  0  0  0  0  0  0
  1  2  1  0
  2  3  1  0
  3  4  2  0
  3  5  2  0
  3  6  1  0
  6  7  2  0
  7  8  1  0
  8  9  2  0
  9 10  1  0
 10 11  1  0
 11 12  1  0
 12 13  1  0
 13 14  1  1
 14 15  2  0
 15 16  1  0
 16 17  2  0
 17 18  1  0
 13 19  1  0
  9 20  1  0
 20 21  2  0
 21  6  1  0
 19 10  1  0
 18 14  1  0
M  END
>  <fragmenstein_mode>  (86) 
expansion

>  <original SMILES>  (86) 
CNS(=O)(=O)c1ccc(N2CC[C@H](c3ccn[nH]3)C2)nc1

>  <fragmenstein_outcome>  (86) 
acceptable

>  <energy_score>  (86) 
-19.109484

>  <tags>  (86) 
['Fragmenstein placed']

>  <original ID>  (86) 
FURJNGPDIFHZDK-JTQLQIEISA-N

>  <alias>  (86) 
None

>  <ref_mols>  (86) 
d0160a,d0191a

>  <HIPPO Pose ID>  (86) 
67138

>  <ref_pdb>  (86) 
d0160a

>  <scratch_subdir>  (86) 
/opt/xchem-fragalysis-2/maxwin/BulkDock/SCRATCH/217042/C18861-P12

>  <HIPPO Compound ID>  (86) 
18861

>  <exports>  (86) 
['/opt/xchem-fragalysis-2/maxwin/BulkDock/OUTPUTS/RdRp_knitwork_primer_grip_n_pocket_pure_split1800_batch008_217042.sdf']

>  <fragmenstein_runtime>  (86) 
2.698165

>  <fragmenstein_error>  (86) 
None

>  <distance_score>  (86) 
0.904184

>  <csv_name>  (86) 
RdRp_knitwork_primer_grip_n_pocket_pure_split1800_batch008.csv

>  <inchikey>  (86) 
FURJNGPDIFHZDK-JTQLQIEISA-N

>  <SLURM_JOB_NAME>  (86) 
BulkDock.place:Flavi_NS5_RdRp:RdRp_knitwork_primer_grip_n_pocket_pure_split1800_batch008

>  <SLURM_JOB_ID>  (86) 
217042

>  <name>  (86) 
FURJNGPDIFHZDK-JTQLQIEISA-N

$$$$
67148
     RDKit          3D

 21 23  0  0  0  0  0  0  0  0999 V2000
  -19.3118  -35.0121  -22.8888 C   0  0  0  0  0  0  0  0  0  0  0  0
  -20.2544  -35.9636  -24.0489 S   0  0  1  0  0  0  0  0  0  0  0  0
  -21.2122  -36.8303  -23.2102 N   0  0  0  0  0  0  0  0  0  0  0  0
  -20.6799  -35.0546  -25.0961 O   0  0  0  0  0  0  0  0  0  0  0  0
  -19.1366  -37.0882  -24.8212 C   0  0  0  0  0  0  0  0  0  0  0  0
  -17.7875  -37.1650  -24.5374 C   0  0  0  0  0  0  0  0  0  0  0  0
  -17.0212  -38.1448  -25.1781 C   0  0  0  0  0  0  0  0  0  0  0  0
  -17.6121  -39.0563  -26.0547 C   0  0  0  0  0  0  0  0  0  0  0  0
  -16.9624  -40.1597  -26.6013 N   0  0  0  0  0  0  0  0  0  0  0  0
  -17.5888  -41.4269  -26.2015 C   0  0  0  0  0  0  0  0  0  0  0  0
  -16.8241  -41.8301  -24.9446 C   0  0  0  0  0  0  0  0  0  0  0  0
  -15.3944  -41.3146  -25.1775 C   0  0  2  0  0  0  0  0  0  0  0  0
  -14.7884  -40.7399  -23.9298 C   0  0  0  0  0  0  0  0  0  0  0  0
  -14.7556  -41.1984  -22.6278 C   0  0  0  0  0  0  0  0  0  0  0  0
  -13.9747  -40.2606  -21.9268 C   0  0  0  0  0  0  0  0  0  0  0  0
  -13.5472  -39.2700  -22.7129 N   0  0  0  0  0  0  0  0  0  0  0  0
  -14.0075  -39.6166  -23.9250 N   0  0  0  0  0  0  0  0  0  0  0  0
  -15.5238  -40.3478  -26.3828 C   0  0  0  0  0  0  0  0  0  0  0  0
  -18.9159  -38.9088  -26.3869 N   0  0  0  0  0  0  0  0  0  0  0  0
  -19.6488  -37.9572  -25.7591 C   0  0  0  0  0  0  0  0  0  0  0  0
  -21.8790  -37.3399  -23.7927 H   0  0  0  0  0  0  0  0  0  0  0  0
  2  1  1  1
  2  3  2  0
  2  4  2  0
  2  5  1  0
  5  6  2  0
  6  7  1  0
  7  8  2  0
  8  9  1  0
  9 10  1  0
 10 11  1  0
 11 12  1  0
 12 13  1  1
 13 14  2  0
 14 15  1  0
 15 16  2  0
 16 17  1  0
 12 18  1  0
  8 19  1  0
 19 20  2  0
 20  5  1  0
 18  9  1  0
 17 13  1  0
  3 21  1  0
M  END
>  <fragmenstein_mode>  (87) 
expansion

>  <original SMILES>  (87) 
[H]N=[S@](C)(=O)c1ccc(N2CC[C@H](c3ccn[nH]3)C2)nc1

>  <fragmenstein_outcome>  (87) 
acceptable

>  <energy_score>  (87) 
-12.728477

>  <tags>  (87) 
['Fragmenstein placed']

>  <original ID>  (87) 
HGFITXIOQBKAJS-WVDJIFEKSA-N

>  <alias>  (87) 
None

>  <ref_mols>  (87) 
d0160a,d0191a

>  <HIPPO Pose ID>  (87) 
67148

>  <ref_pdb>  (87) 
d0160a

>  <scratch_subdir>  (87) 
/opt/xchem-fragalysis-2/maxwin/BulkDock/SCRATCH/217042/C18883-P12

>  <HIPPO Compound ID>  (87) 
18883

>  <exports>  (87) 
['/opt/xchem-fragalysis-2/maxwin/BulkDock/OUTPUTS/RdRp_knitwork_primer_grip_n_pocket_pure_split1800_batch008_217042.sdf']

>  <fragmenstein_runtime>  (87) 
2.539211

>  <fragmenstein_error>  (87) 
None

>  <distance_score>  (87) 
0.965491

>  <csv_name>  (87) 
RdRp_knitwork_primer_grip_n_pocket_pure_split1800_batch008.csv

>  <inchikey>  (87) 
HGFITXIOQBKAJS-WVDJIFEKSA-N

>  <SLURM_JOB_NAME>  (87) 
BulkDock.place:Flavi_NS5_RdRp:RdRp_knitwork_primer_grip_n_pocket_pure_split1800_batch008

>  <SLURM_JOB_ID>  (87) 
217042

>  <name>  (87) 
HGFITXIOQBKAJS-WVDJIFEKSA-N

$$$$
67152
     RDKit          3D

 18 20  0  0  0  0  0  0  0  0999 V2000
  -16.1592  -37.0781  -22.5415 O   0  0  0  0  0  0  0  0  0  0  0  0
  -17.4845  -36.7086  -22.8878 C   0  0  0  0  0  0  0  0  0  0  0  0
  -17.9181  -37.3442  -24.1809 C   0  0  0  0  0  0  0  0  0  0  0  0
  -19.1522  -37.0235  -24.7252 C   0  0  0  0  0  0  0  0  0  0  0  0
  -19.5647  -37.7126  -25.8456 C   0  0  0  0  0  0  0  0  0  0  0  0
  -18.8387  -38.6673  -26.4734 N   0  0  0  0  0  0  0  0  0  0  0  0
  -17.6383  -39.0050  -25.9468 C   0  0  0  0  0  0  0  0  0  0  0  0
  -16.9869  -40.1015  -26.5259 N   0  0  0  0  0  0  0  0  0  0  0  0
  -17.6190  -41.3651  -26.1313 C   0  0  0  0  0  0  0  0  0  0  0  0
  -16.8531  -41.7975  -24.8870 C   0  0  0  0  0  0  0  0  0  0  0  0
  -15.4160  -41.3148  -25.1324 C   0  0  2  0  0  0  0  0  0  0  0  0
  -14.7493  -40.8677  -23.8612 C   0  0  0  0  0  0  0  0  0  0  0  0
  -14.6440  -41.4776  -22.6263 C   0  0  0  0  0  0  0  0  0  0  0  0
  -13.8372  -40.6193  -21.8566 C   0  0  0  0  0  0  0  0  0  0  0  0
  -13.4548  -39.5382  -22.5380 N   0  0  0  0  0  0  0  0  0  0  0  0
  -14.0148  -39.7163  -23.7462 N   0  0  0  0  0  0  0  0  0  0  0  0
  -15.5455  -40.2657  -26.2678 C   0  0  0  0  0  0  0  0  0  0  0  0
  -17.1592  -38.3301  -24.8222 C   0  0  0  0  0  0  0  0  0  0  0  0
  1  2  1  0
  2  3  1  0
  3  4  2  0
  4  5  1  0
  5  6  2  0
  6  7  1  0
  7  8  1  0
  8  9  1  0
  9 10  1  0
 10 11  1  0
 11 12  1  1
 12 13  2  0
 13 14  1  0
 14 15  2  0
 15 16  1  0
 11 17  1  0
  7 18  2  0
 18  3  1  0
 17  8  1  0
 16 12  1  0
M  END
>  <fragmenstein_mode>  (88) 
expansion

>  <original SMILES>  (88) 
OCc1ccnc(N2CC[C@H](c3ccn[nH]3)C2)c1

>  <fragmenstein_outcome>  (88) 
acceptable

>  <energy_score>  (88) 
-16.636826

>  <tags>  (88) 
['Fragmenstein placed']

>  <original ID>  (88) 
TYJCAHRAGOYIEV-NSHDSACASA-N

>  <alias>  (88) 
None

>  <ref_mols>  (88) 
d0160a,d0191a

>  <HIPPO Pose ID>  (88) 
67152

>  <ref_pdb>  (88) 
d0160a

>  <scratch_subdir>  (88) 
/opt/xchem-fragalysis-2/maxwin/BulkDock/SCRATCH/217042/C18884-P12

>  <HIPPO Compound ID>  (88) 
18884

>  <exports>  (88) 
['/opt/xchem-fragalysis-2/maxwin/BulkDock/OUTPUTS/RdRp_knitwork_primer_grip_n_pocket_pure_split1800_batch008_217042.sdf']

>  <fragmenstein_runtime>  (88) 
2.459838

>  <fragmenstein_error>  (88) 
None

>  <distance_score>  (88) 
0.887864

>  <csv_name>  (88) 
RdRp_knitwork_primer_grip_n_pocket_pure_split1800_batch008.csv

>  <inchikey>  (88) 
TYJCAHRAGOYIEV-NSHDSACASA-N

>  <SLURM_JOB_NAME>  (88) 
BulkDock.place:Flavi_NS5_RdRp:RdRp_knitwork_primer_grip_n_pocket_pure_split1800_batch008

>  <SLURM_JOB_ID>  (88) 
217042

>  <name>  (88) 
TYJCAHRAGOYIEV-NSHDSACASA-N

$$$$
67155
     RDKit          3D

 20 22  0  0  0  0  0  0  0  0999 V2000
  -21.2023  -36.6226  -23.0718 C   0  0  0  0  0  0  0  0  0  0  0  0
  -20.0575  -35.7198  -24.0813 S   0  0  0  0  0  0  0  0  0  0  0  0
  -19.2205  -34.9373  -23.1948 O   0  0  0  0  0  0  0  0  0  0  0  0
  -20.7933  -35.0880  -25.1606 O   0  0  0  0  0  0  0  0  0  0  0  0
  -19.0567  -36.9658  -24.8164 C   0  0  0  0  0  0  0  0  0  0  0  0
  -17.7196  -37.1103  -24.5076 C   0  0  0  0  0  0  0  0  0  0  0  0
  -16.9943  -38.1298  -25.1283 C   0  0  0  0  0  0  0  0  0  0  0  0
  -17.6172  -39.0152  -26.0097 C   0  0  0  0  0  0  0  0  0  0  0  0
  -17.0031  -40.1372  -26.5614 N   0  0  0  0  0  0  0  0  0  0  0  0
  -17.6505  -41.3879  -26.1476 C   0  0  0  0  0  0  0  0  0  0  0  0
  -16.8672  -41.8127  -24.9095 C   0  0  0  0  0  0  0  0  0  0  0  0
  -15.4316  -41.3246  -25.1668 C   0  0  2  0  0  0  0  0  0  0  0  0
  -14.7963  -40.7640  -23.9267 C   0  0  0  0  0  0  0  0  0  0  0  0
  -14.7490  -41.2310  -22.6278 C   0  0  0  0  0  0  0  0  0  0  0  0
  -13.9492  -40.3056  -21.9317 C   0  0  0  0  0  0  0  0  0  0  0  0
  -13.5208  -39.3164  -22.7184 N   0  0  0  0  0  0  0  0  0  0  0  0
  -14.0044  -39.6478  -23.9253 N   0  0  0  0  0  0  0  0  0  0  0  0
  -15.5636  -40.3549  -26.3690 C   0  0  0  0  0  0  0  0  0  0  0  0
  -18.9154  -38.8161  -26.3489 N   0  0  0  0  0  0  0  0  0  0  0  0
  -19.6059  -37.8147  -25.7490 C   0  0  0  0  0  0  0  0  0  0  0  0
  1  2  1  0
  2  3  2  0
  2  4  2  0
  2  5  1  0
  5  6  2  0
  6  7  1  0
  7  8  2  0
  8  9  1  0
  9 10  1  0
 10 11  1  0
 11 12  1  0
 12 13  1  1
 13 14  2  0
 14 15  1  0
 15 16  2  0
 16 17  1  0
 12 18  1  0
  8 19  1  0
 19 20  2  0
 20  5  1  0
 18  9  1  0
 17 13  1  0
M  END
>  <fragmenstein_mode>  (89) 
expansion

>  <original SMILES>  (89) 
CS(=O)(=O)c1ccc(N2CC[C@H](c3ccn[nH]3)C2)nc1

>  <fragmenstein_outcome>  (89) 
acceptable

>  <energy_score>  (89) 
-36.250209

>  <tags>  (89) 
['Fragmenstein placed']

>  <original ID>  (89) 
OMJITSFZDIWXMI-JTQLQIEISA-N

>  <alias>  (89) 
None

>  <ref_mols>  (89) 
d0160a,d0191a

>  <HIPPO Pose ID>  (89) 
67155

>  <ref_pdb>  (89) 
d0160a

>  <scratch_subdir>  (89) 
/opt/xchem-fragalysis-2/maxwin/BulkDock/SCRATCH/217042/C18885-P12

>  <HIPPO Compound ID>  (89) 
18885

>  <exports>  (89) 
['/opt/xchem-fragalysis-2/maxwin/BulkDock/OUTPUTS/RdRp_knitwork_primer_grip_n_pocket_pure_split1800_batch008_217042.sdf']

>  <fragmenstein_runtime>  (89) 
2.489466

>  <fragmenstein_error>  (89) 
None

>  <distance_score>  (89) 
0.90966

>  <csv_name>  (89) 
RdRp_knitwork_primer_grip_n_pocket_pure_split1800_batch008.csv

>  <inchikey>  (89) 
OMJITSFZDIWXMI-JTQLQIEISA-N

>  <SLURM_JOB_NAME>  (89) 
BulkDock.place:Flavi_NS5_RdRp:RdRp_knitwork_primer_grip_n_pocket_pure_split1800_batch008

>  <SLURM_JOB_ID>  (89) 
217042

>  <name>  (89) 
OMJITSFZDIWXMI-JTQLQIEISA-N

$$$$
67185
     RDKit          3D

 19 22  0  0  0  0  0  0  0  0999 V2000
  -14.2622  -40.2465  -21.9094 C   0  0  0  0  0  0  0  0  0  0  0  0
  -15.0018  -41.1871  -22.6530 C   0  0  0  0  0  0  0  0  0  0  0  0
  -14.8614  -40.7955  -23.9677 C   0  0  0  0  0  0  0  0  0  0  0  0
  -15.2591  -41.4129  -25.2763 C   0  0  1  0  0  0  0  0  0  0  0  0
  -16.4948  -42.3038  -25.2397 C   0  0  0  0  0  0  0  0  0  0  0  0
  -17.6535  -41.3496  -25.5093 C   0  0  0  0  0  0  0  0  0  0  0  0
  -17.0884  -40.2630  -26.3296 N   0  0  0  0  0  0  0  0  0  0  0  0
  -17.6431  -39.0458  -25.9395 C   0  0  0  0  0  0  0  0  0  0  0  0
  -17.0048  -38.1353  -25.1059 C   0  0  0  0  0  0  0  0  0  0  0  0
  -17.7043  -37.0420  -24.5910 C   0  0  0  0  0  0  0  0  0  0  0  0
  -19.0344  -36.8215  -24.9230 C   0  0  0  0  0  0  0  0  0  0  0  0
  -19.8063  -35.6354  -24.4058 C   0  0  0  0  0  0  0  0  0  0  0  0
  -21.1139  -35.8322  -23.6752 C   0  0  0  0  0  0  0  0  0  0  0  0
  -19.9001  -35.3851  -22.9184 C   0  0  0  0  0  0  0  0  0  0  0  0
  -19.5770  -37.7597  -25.7892 C   0  0  0  0  0  0  0  0  0  0  0  0
  -18.9234  -38.8292  -26.3130 N   0  0  0  0  0  0  0  0  0  0  0  0
  -15.6289  -40.4197  -26.3947 C   0  0  0  0  0  0  0  0  0  0  0  0
  -14.0504  -39.6912  -23.9215 N   0  0  0  0  0  0  0  0  0  0  0  0
  -13.7048  -39.3121  -22.6823 N   0  0  0  0  0  0  0  0  0  0  0  0
  1  2  1  0
  2  3  2  0
  4  3  1  1
  4  5  1  0
  5  6  1  0
  6  7  1  0
  7  8  1  0
  8  9  2  0
  9 10  1  0
 10 11  2  0
 11 12  1  0
 12 13  1  0
 13 14  1  0
 11 15  1  0
 15 16  2  0
  7 17  1  0
  3 18  1  0
 18 19  1  0
 19  1  2  0
 17  4  1  0
 16  8  1  0
 14 12  1  0
M  END
>  <fragmenstein_mode>  (90) 
expansion

>  <original SMILES>  (90) 
c1cc([C@H]2CCN(c3ccc(C4CC4)cn3)C2)[nH]n1

>  <fragmenstein_outcome>  (90) 
acceptable

>  <energy_score>  (90) 
-27.77661

>  <tags>  (90) 
['Fragmenstein placed']

>  <original ID>  (90) 
QEHJTFFBFMMWOU-ZDUSSCGKSA-N

>  <alias>  (90) 
None

>  <ref_mols>  (90) 
d0160a,d0191a

>  <HIPPO Pose ID>  (90) 
67185

>  <ref_pdb>  (90) 
d0160a

>  <scratch_subdir>  (90) 
/opt/xchem-fragalysis-2/maxwin/BulkDock/SCRATCH/217042/C18897-P12

>  <HIPPO Compound ID>  (90) 
18897

>  <exports>  (90) 
['/opt/xchem-fragalysis-2/maxwin/BulkDock/OUTPUTS/RdRp_knitwork_primer_grip_n_pocket_pure_split1800_batch008_217042.sdf']

>  <fragmenstein_runtime>  (90) 
2.420963

>  <fragmenstein_error>  (90) 
None

>  <distance_score>  (90) 
0.972351

>  <csv_name>  (90) 
RdRp_knitwork_primer_grip_n_pocket_pure_split1800_batch008.csv

>  <inchikey>  (90) 
QEHJTFFBFMMWOU-ZDUSSCGKSA-N

>  <SLURM_JOB_NAME>  (90) 
BulkDock.place:Flavi_NS5_RdRp:RdRp_knitwork_primer_grip_n_pocket_pure_split1800_batch008

>  <SLURM_JOB_ID>  (90) 
217042

>  <name>  (90) 
QEHJTFFBFMMWOU-ZDUSSCGKSA-N

$$$$
67308
     RDKit          3D

 21 22  0  0  0  0  0  0  0  0999 V2000
  -19.7375  -40.5951  -26.8494 N   0  0  0  0  0  0  0  0  0  0  0  0
  -18.8334  -41.0043  -26.2507 C   0  0  0  0  0  0  0  0  0  0  0  0
  -17.6851  -41.4621  -25.5436 C   0  0  0  0  0  0  0  0  0  0  0  0
  -16.4725  -40.7818  -25.6893 C   0  0  0  0  0  0  0  0  0  0  0  0
  -15.3841  -41.1823  -24.9314 C   0  0  0  0  0  0  0  0  0  0  0  0
  -15.5485  -42.2497  -24.0632 C   0  0  0  0  0  0  0  0  0  0  0  0
  -14.4523  -42.5364  -23.2905 O   0  0  0  0  0  0  0  0  0  0  0  0
  -14.5965  -43.5644  -22.3136 C   0  0  0  0  0  0  0  0  0  0  0  0
  -15.1430  -42.9928  -21.0105 C   0  0  0  0  0  0  0  0  0  0  0  0
  -16.5757  -42.9486  -21.0512 N   0  0  0  0  0  0  0  0  0  0  0  0
  -17.5961  -42.5013  -19.9820 C   0  0  0  0  0  0  0  0  0  0  0  0
  -17.4295  -42.0271  -18.9307 O   0  0  0  0  0  0  0  0  0  0  0  0
  -18.9611  -42.9015  -20.5178 C   0  0  0  0  0  0  0  0  0  0  0  0
  -19.3328  -44.2965  -20.0303 C   0  0  0  0  0  0  0  0  0  0  0  0
  -18.3179  -45.3653  -20.3325 C   0  0  0  0  0  0  0  0  0  0  0  0
  -17.3585  -45.7116  -19.4993 N   0  0  0  0  0  0  0  0  0  0  0  0
  -16.7568  -46.8710  -19.9283 C   0  0  0  0  0  0  0  0  0  0  0  0
  -17.2529  -47.3790  -21.1034 C   0  0  0  0  0  0  0  0  0  0  0  0
  -18.3615  -46.2719  -21.7858 S   0  0  0  0  0  0  0  0  0  0  0  0
  -16.6981  -42.9541  -23.9268 N   0  0  0  0  0  0  0  0  0  0  0  0
  -17.7456  -42.5411  -24.6745 C   0  0  0  0  0  0  0  0  0  0  0  0
  1  2  3  0
  2  3  1  0
  3  4  2  0
  4  5  1  0
  5  6  2  0
  6  7  1  0
  7  8  1  0
  8  9  1  0
  9 10  1  0
 10 11  1  0
 11 12  2  0
 11 13  1  0
 13 14  1  0
 14 15  1  0
 15 16  2  0
 16 17  1  0
 17 18  2  0
 18 19  1  0
  6 20  1  0
 20 21  2  0
 21  3  1  0
 19 15  1  0
M  END
>  <fragmenstein_mode>  (91) 
expansion

>  <original SMILES>  (91) 
N#Cc1ccc(OCCNC(=O)CCc2nccs2)nc1

>  <fragmenstein_outcome>  (91) 
acceptable

>  <energy_score>  (91) 
-61.850228

>  <tags>  (91) 
['Fragmenstein placed']

>  <original ID>  (91) 
HTZVXKPYUGQGKR-UHFFFAOYSA-N

>  <alias>  (91) 
None

>  <ref_mols>  (91) 
d0472a,d0615b

>  <HIPPO Pose ID>  (91) 
67308

>  <ref_pdb>  (91) 
d0472a

>  <scratch_subdir>  (91) 
/opt/xchem-fragalysis-2/maxwin/BulkDock/SCRATCH/217965/C67308-P203

>  <HIPPO Compound ID>  (91) 
12413

>  <exports>  (91) 
nan

>  <fragmenstein_runtime>  (91) 
4.971905

>  <fragmenstein_error>  (91) 
None

>  <distance_score>  (91) 
1.542092

>  <csv_name>  (91) 
green_site_rna_tunnel_fstein_bulkdock_input_split1000_batch000.csv

>  <inchikey>  (91) 
HTZVXKPYUGQGKR-UHFFFAOYSA-N

>  <SLURM_JOB_NAME>  (91) 
BulkDock.place:Flavi_NS5_RdRp:green_site_rna_tunnel_fstein_bulkdock_input_split1000_batch000

>  <SLURM_JOB_ID>  (91) 
217965

>  <name>  (91) 
HTZVXKPYUGQGKR-UHFFFAOYSA-N

$$$$
67358
     RDKit          3D

 15 16  0  0  0  0  0  0  0  0999 V2000
  -18.6116  -37.9754  -23.2332 O   0  0  0  0  0  1  0  0  0  0  0  0
  -17.0805  -38.3380  -23.7645 S   0  0  0  0  0  3  0  0  0  0  0  0
  -17.0944  -40.1009  -23.9337 C   0  0  0  0  0  0  0  0  0  0  0  0
  -15.7591  -40.7769  -24.1197 C   0  0  0  0  0  0  0  0  0  0  0  0
  -15.8524  -42.1042  -23.3809 C   0  0  1  0  0  0  0  0  0  0  0  0
  -16.8534  -43.0768  -24.0115 C   0  0  0  0  0  0  0  0  0  0  0  0
  -17.0603  -44.2326  -23.0341 C   0  0  0  0  0  0  0  0  0  0  0  0
  -15.8407  -44.4722  -22.1326 C   0  0  0  0  0  0  0  0  0  0  0  0
  -14.6103  -44.1524  -22.8248 N   0  0  0  0  0  0  0  0  0  0  0  0
  -14.4977  -42.7778  -23.2725 C   0  0  0  0  0  0  0  0  0  0  0  0
  -17.0152  -37.8077  -25.4765 C   0  0  1  0  0  0  0  0  0  0  0  0
  -16.0317  -38.4871  -26.3905 C   0  0  0  0  0  0  0  0  0  0  0  0
  -16.8888  -39.4397  -27.1714 C   0  0  0  0  0  0  0  0  0  0  0  0
  -18.1414  -38.7507  -27.3351 O   0  0  0  0  0  0  0  0  0  0  0  0
  -18.3461  -37.9315  -26.1722 C   0  0  0  0  0  0  0  0  0  0  0  0
  2  1  1  6
  2  3  1  0
  3  4  1  0
  5  4  1  6
  5  6  1  0
  6  7  1  0
  7  8  1  0
  8  9  1  0
  9 10  1  0
  2 11  1  0
 11 12  1  6
 12 13  1  0
 13 14  1  0
 14 15  1  0
 10  5  1  0
 15 11  1  0
M  CHG  2   1  -1   2   1
M  END
>  <fragmenstein_mode>  (92) 
expansion

>  <original SMILES>  (92) 
[O-][S@@+](CC[C@H]1CCCNC1)[C@H]1CCOC1

>  <fragmenstein_outcome>  (92) 
acceptable

>  <energy_score>  (92) 
-8.793814

>  <tags>  (92) 
['Fragmenstein placed']

>  <original ID>  (92) 
AMBWVFWJTHUKAH-ZETOZRRWSA-N

>  <alias>  (92) 
None

>  <ref_mols>  (92) 
d0254a,d0866a

>  <HIPPO Pose ID>  (92) 
67358

>  <ref_pdb>  (92) 
d0254a

>  <scratch_subdir>  (92) 
/opt/xchem-fragalysis-2/maxwin/BulkDock/SCRATCH/217965/C67358-P133

>  <HIPPO Compound ID>  (92) 
11248

>  <exports>  (92) 
nan

>  <fragmenstein_runtime>  (92) 
2.903079

>  <fragmenstein_error>  (92) 
None

>  <distance_score>  (92) 
1.77992

>  <csv_name>  (92) 
green_site_rna_tunnel_fstein_bulkdock_input_split1000_batch000.csv

>  <inchikey>  (92) 
AMBWVFWJTHUKAH-ZETOZRRWSA-N

>  <SLURM_JOB_NAME>  (92) 
BulkDock.place:Flavi_NS5_RdRp:green_site_rna_tunnel_fstein_bulkdock_input_split1000_batch000

>  <SLURM_JOB_ID>  (92) 
217965

>  <name>  (92) 
AMBWVFWJTHUKAH-ZETOZRRWSA-N

$$$$
67381
     RDKit          3D

 17 18  0  0  0  0  0  0  0  0999 V2000
  -17.1617  -44.5349  -22.3239 C   0  0  0  0  0  0  0  0  0  0  0  0
  -16.5340  -43.3262  -22.7444 O   0  0  0  0  0  0  0  0  0  0  0  0
  -15.4712  -42.9549  -21.9817 C   0  0  0  0  0  0  0  0  0  0  0  0
  -15.0833  -43.5769  -20.9980 O   0  0  0  0  0  0  0  0  0  0  0  0
  -14.9222  -41.6883  -22.4091 C   0  0  0  0  0  0  0  0  0  0  0  0
  -14.0905  -40.9895  -21.5494 N   0  0  0  0  0  0  0  0  0  0  0  0
  -13.8264  -39.7338  -22.0257 C   0  0  0  0  0  0  0  0  0  0  0  0
  -13.1093  -38.7082  -21.1938 C   0  0  0  0  0  0  0  0  0  0  0  0
  -13.9657  -37.4519  -21.0227 C   0  0  0  0  0  0  0  0  0  0  0  0
  -11.7483  -38.3504  -21.7847 C   0  0  0  0  0  0  0  0  0  0  0  0
  -14.3615  -39.6861  -23.2961 C   0  0  0  0  0  0  0  0  0  0  0  0
  -15.0281  -40.9138  -23.5585 C   0  0  0  0  0  0  0  0  0  0  0  0
  -15.6652  -41.1938  -24.8452 C   0  0  0  0  0  0  0  0  0  0  0  0
  -16.0966  -40.2489  -25.8074 C   0  0  0  0  0  0  0  0  0  0  0  0
  -16.6096  -40.8263  -26.9037 N   0  0  0  0  0  0  0  0  0  0  0  0
  -16.4124  -42.1352  -26.6756 N   0  0  0  0  0  0  0  0  0  0  0  0
  -15.9123  -42.4070  -25.4376 C   0  0  0  0  0  0  0  0  0  0  0  0
  1  2  1  0
  2  3  1  0
  3  4  2  0
  3  5  1  0
  5  6  1  0
  6  7  1  0
  7  8  1  0
  8  9  1  0
  8 10  1  0
  7 11  2  0
 11 12  1  0
 12 13  1  0
 13 14  1  0
 14 15  2  0
 15 16  1  0
 16 17  1  0
 12  5  2  0
 17 13  2  0
M  END
>  <fragmenstein_mode>  (93) 
expansion

>  <original SMILES>  (93) 
COC(=O)c1[nH]c(C(C)C)cc1-c1cn[nH]c1

>  <fragmenstein_outcome>  (93) 
acceptable

>  <energy_score>  (93) 
-49.289279

>  <tags>  (93) 
['Fragmenstein placed']

>  <original ID>  (93) 
PZJPOAHREUQCOG-UHFFFAOYSA-N

>  <alias>  (93) 
None

>  <ref_mols>  (93) 
d0160a,d0472a

>  <HIPPO Pose ID>  (93) 
67381

>  <ref_pdb>  (93) 
d0472a

>  <scratch_subdir>  (93) 
/opt/xchem-fragalysis-2/maxwin/BulkDock/SCRATCH/217912/C67381-P42

>  <HIPPO Compound ID>  (93) 
11952

>  <exports>  (93) 
nan

>  <fragmenstein_runtime>  (93) 
3.495174

>  <fragmenstein_error>  (93) 
None

>  <distance_score>  (93) 
1.91751

>  <csv_name>  (93) 
primer_grip_n_pocket_fstein_bulkdock_input_split1000_batch000.csv

>  <inchikey>  (93) 
PZJPOAHREUQCOG-UHFFFAOYSA-N

>  <SLURM_JOB_NAME>  (93) 
BulkDock.place:Flavi_NS5_RdRp:primer_grip_n_pocket_fstein_bulkdock_input_split1000_batch000

>  <SLURM_JOB_ID>  (93) 
217912

>  <name>  (93) 
PZJPOAHREUQCOG-UHFFFAOYSA-N

$$$$
67779
     RDKit          3D

 16 17  0  0  0  0  0  0  0  0999 V2000
  -16.5407  -47.7550  -20.7475 O   0  0  0  0  0  0  0  0  0  0  0  0
  -17.3467  -46.9122  -21.1122 C   0  0  0  0  0  0  0  0  0  0  0  0
  -18.3037  -47.2362  -22.0079 O   0  0  0  0  0  0  0  0  0  0  0  0
  -17.4722  -45.4682  -20.6370 C   0  0  1  0  0  0  0  0  0  0  0  0
  -17.4719  -44.4734  -21.8205 C   0  0  0  0  0  0  0  0  0  0  0  0
  -16.1548  -44.4455  -22.5968 C   0  0  0  0  0  0  0  0  0  0  0  0
  -16.0268  -43.2585  -23.5175 C   0  0  0  0  0  0  0  0  0  0  0  0
  -16.6265  -43.2574  -24.7733 C   0  0  0  0  0  0  0  0  0  0  0  0
  -16.3927  -42.1875  -25.6318 C   0  0  0  0  0  0  0  0  0  0  0  0
  -15.5975  -41.1336  -25.2056 C   0  0  0  0  0  0  0  0  0  0  0  0
  -15.0717  -41.1947  -23.9281 C   0  0  0  0  0  0  0  0  0  0  0  0
  -15.2714  -42.2249  -23.0753 N   0  0  0  0  0  0  0  0  0  0  0  0
  -18.7391  -45.3378  -19.7956 C   0  0  0  0  0  0  0  0  0  0  0  0
  -18.2908  -45.8327  -18.4383 C   0  0  0  0  0  0  0  0  0  0  0  0
  -16.9220  -45.4489  -18.3048 O   0  0  0  0  0  0  0  0  0  0  0  0
  -16.3879  -45.1587  -19.6066 C   0  0  0  0  0  0  0  0  0  0  0  0
  1  2  2  0
  2  3  1  0
  2  4  1  0
  4  5  1  6
  5  6  1  0
  6  7  1  0
  7  8  2  0
  8  9  1  0
  9 10  2  0
 10 11  1  0
 11 12  2  0
  4 13  1  0
 13 14  1  0
 14 15  1  0
 15 16  1  0
 16  4  1  0
 12  7  1  0
M  END
>  <fragmenstein_mode>  (94) 
expansion

>  <original SMILES>  (94) 
O=C(O)[C@@]1(CCc2ccccn2)CCOC1

>  <fragmenstein_outcome>  (94) 
acceptable

>  <energy_score>  (94) 
-30.857868

>  <tags>  (94) 
['Fragmenstein placed']

>  <original ID>  (94) 
AIUGRNUZDRGNJR-LBPRGKRZSA-N

>  <alias>  (94) 
None

>  <ref_mols>  (94) 
d0254a,d0472a

>  <HIPPO Pose ID>  (94) 
67779

>  <ref_pdb>  (94) 
d0254a

>  <scratch_subdir>  (94) 
/opt/xchem-fragalysis-2/maxwin/BulkDock/SCRATCH/217044/C24631-P26

>  <HIPPO Compound ID>  (94) 
24631

>  <exports>  (94) 
['/opt/xchem-fragalysis-2/maxwin/BulkDock/OUTPUTS/RdRp_knitwork_primer_grip_n_pocket_pure_split1800_batch010_217044.sdf']

>  <fragmenstein_runtime>  (94) 
2.169226

>  <fragmenstein_error>  (94) 
None

>  <distance_score>  (94) 
0.846889

>  <csv_name>  (94) 
RdRp_knitwork_primer_grip_n_pocket_pure_split1800_batch010.csv

>  <inchikey>  (94) 
AIUGRNUZDRGNJR-LBPRGKRZSA-N

>  <SLURM_JOB_NAME>  (94) 
BulkDock.place:Flavi_NS5_RdRp:RdRp_knitwork_primer_grip_n_pocket_pure_split1800_batch010

>  <SLURM_JOB_ID>  (94) 
217044

>  <name>  (94) 
AIUGRNUZDRGNJR-LBPRGKRZSA-N

$$$$
67781
     RDKit          3D

 16 17  0  0  0  0  0  0  0  0999 V2000
  -16.5501  -48.0864  -20.5668 O   0  0  0  0  0  0  0  0  0  0  0  0
  -17.2922  -47.2094  -20.9855 C   0  0  0  0  0  0  0  0  0  0  0  0
  -18.3625  -47.5246  -21.7454 O   0  0  0  0  0  0  0  0  0  0  0  0
  -17.1929  -45.7061  -20.7494 C   0  0  1  0  0  0  0  0  0  0  0  0
  -16.9283  -45.0221  -22.1111 C   0  0  0  0  0  0  0  0  0  0  0  0
  -17.0678  -43.4998  -22.1109 C   0  0  0  0  0  0  0  0  0  0  0  0
  -16.5194  -42.8281  -23.3428 C   0  0  0  0  0  0  0  0  0  0  0  0
  -17.1110  -43.0174  -24.5893 C   0  0  0  0  0  0  0  0  0  0  0  0
  -16.6233  -42.3013  -25.6783 C   0  0  0  0  0  0  0  0  0  0  0  0
  -15.5744  -41.4110  -25.4937 C   0  0  0  0  0  0  0  0  0  0  0  0
  -15.0383  -41.2908  -24.2255 C   0  0  0  0  0  0  0  0  0  0  0  0
  -15.4814  -41.9793  -23.1517 N   0  0  0  0  0  0  0  0  0  0  0  0
  -18.4389  -45.2387  -20.0006 C   0  0  0  0  0  0  0  0  0  0  0  0
  -18.1224  -45.6188  -18.5697 C   0  0  0  0  0  0  0  0  0  0  0  0
  -16.7111  -45.4462  -18.4156 O   0  0  0  0  0  0  0  0  0  0  0  0
  -16.0985  -45.4330  -19.7185 C   0  0  0  0  0  0  0  0  0  0  0  0
  1  2  2  0
  2  3  1  0
  2  4  1  0
  4  5  1  6
  5  6  1  0
  6  7  1  0
  7  8  2  0
  8  9  1  0
  9 10  2  0
 10 11  1  0
 11 12  2  0
  4 13  1  0
 13 14  1  0
 14 15  1  0
 15 16  1  0
 16  4  1  0
 12  7  1  0
M  END
>  <fragmenstein_mode>  (95) 
expansion

>  <original SMILES>  (95) 
O=C(O)[C@@]1(CCc2ccccn2)CCOC1

>  <fragmenstein_outcome>  (95) 
acceptable

>  <energy_score>  (95) 
-27.936603

>  <tags>  (95) 
['Fragmenstein placed']

>  <original ID>  (95) 
AIUGRNUZDRGNJR-LBPRGKRZSA-N

>  <alias>  (95) 
None

>  <ref_mols>  (95) 
d0254a,d0472a

>  <HIPPO Pose ID>  (95) 
67781

>  <ref_pdb>  (95) 
d0472a

>  <scratch_subdir>  (95) 
/opt/xchem-fragalysis-2/maxwin/BulkDock/SCRATCH/217044/C24631-P42

>  <HIPPO Compound ID>  (95) 
24631

>  <exports>  (95) 
['/opt/xchem-fragalysis-2/maxwin/BulkDock/OUTPUTS/RdRp_knitwork_primer_grip_n_pocket_pure_split1800_batch010_217044.sdf']

>  <fragmenstein_runtime>  (95) 
3.100861

>  <fragmenstein_error>  (95) 
None

>  <distance_score>  (95) 
0.963719

>  <csv_name>  (95) 
RdRp_knitwork_primer_grip_n_pocket_pure_split1800_batch010.csv

>  <inchikey>  (95) 
AIUGRNUZDRGNJR-LBPRGKRZSA-N

>  <SLURM_JOB_NAME>  (95) 
BulkDock.place:Flavi_NS5_RdRp:RdRp_knitwork_primer_grip_n_pocket_pure_split1800_batch010

>  <SLURM_JOB_ID>  (95) 
217044

>  <name>  (95) 
AIUGRNUZDRGNJR-LBPRGKRZSA-N

$$$$
67908
     RDKit          3D

 21 22  0  0  0  0  0  0  0  0999 V2000
  -18.6394  -44.4269  -23.8330 C   0  0  0  0  0  0  0  0  0  0  0  0
  -17.3572  -44.2714  -23.0861 C   0  0  0  0  0  0  0  0  0  0  0  0
  -16.3055  -43.4683  -23.3424 C   0  0  0  0  0  0  0  0  0  0  0  0
  -16.1494  -42.4730  -24.4000 C   0  0  0  0  0  0  0  0  0  0  0  0
  -16.4144  -42.7443  -25.7337 C   0  0  0  0  0  0  0  0  0  0  0  0
  -16.2063  -41.7442  -26.6777 C   0  0  0  0  0  0  0  0  0  0  0  0
  -15.7272  -40.5091  -26.2656 C   0  0  0  0  0  0  0  0  0  0  0  0
  -15.4594  -40.3326  -24.9206 C   0  0  0  0  0  0  0  0  0  0  0  0
  -15.6466  -41.2864  -23.9819 N   0  0  0  0  0  0  0  0  0  0  0  0
  -17.2807  -45.0999  -21.8389 C   0  0  0  0  0  0  0  0  0  0  0  0
  -17.4901  -46.2319  -21.8038 O   0  0  0  0  0  0  0  0  0  0  0  0
  -16.8949  -44.0428  -20.7186 N   0  0  0  0  0  0  0  0  0  0  0  0
  -16.8831  -44.3399  -19.4328 C   0  0  0  0  0  0  0  0  0  0  0  0
  -16.4214  -44.1184  -18.8178 C   0  0  2  0  0  0  0  0  0  0  0  0
  -17.2595  -44.1374  -17.2604 C   0  0  0  0  0  0  0  0  0  0  0  0
  -18.1866  -43.4154  -16.9373 O   0  0  0  0  0  0  0  0  0  0  0  0
  -16.7822  -45.0964  -16.4403 O   0  0  0  0  0  0  0  0  0  0  0  0
  -15.7280  -42.5358  -18.6865 C   0  0  0  0  0  0  0  0  0  0  0  0
  -14.6038  -42.6731  -17.6932 C   0  0  0  0  0  0  0  0  0  0  0  0
  -14.0348  -43.9726  -17.8045 O   0  0  0  0  0  0  0  0  0  0  0  0
  -14.8551  -44.8273  -18.5950 C   0  0  0  0  0  0  0  0  0  0  0  0
  1  2  1  0
  2  3  2  3
  3  4  1  0
  4  5  2  0
  5  6  1  0
  6  7  2  0
  7  8  1  0
  8  9  2  0
  2 10  1  0
 10 11  2  0
 10 12  1  0
 12 13  1  0
 14 12  1  6
 14 15  1  0
 15 16  2  0
 15 17  1  0
 14 18  1  0
 18 19  1  0
 19 20  1  0
 20 21  1  0
  9  4  1  0
 21 14  1  0
M  END
>  <fragmenstein_mode>  (96) 
expansion

>  <original SMILES>  (96) 
CC(=Cc1ccccn1)C(=O)N(C)[C@]1(C(=O)O)CCOC1

>  <fragmenstein_outcome>  (96) 
acceptable

>  <energy_score>  (96) 
463.581154

>  <tags>  (96) 
['Fragmenstein placed']

>  <original ID>  (96) 
SFXBVCJTOODOJM-OAHLLOKOSA-N

>  <alias>  (96) 
None

>  <ref_mols>  (96) 
d0254a,d0472a

>  <HIPPO Pose ID>  (96) 
67908

>  <ref_pdb>  (96) 
d0254a

>  <scratch_subdir>  (96) 
/opt/xchem-fragalysis-2/maxwin/BulkDock/SCRATCH/217910/C67908-P151

>  <HIPPO Compound ID>  (96) 
24657

>  <exports>  (96) 
['/opt/xchem-fragalysis-2/maxwin/BulkDock/OUTPUTS/RdRp_knitwork_primer_grip_n_pocket_pure_split1800_batch010_217044.sdf']

>  <fragmenstein_runtime>  (96) 
3.580361

>  <fragmenstein_error>  (96) 
None

>  <distance_score>  (96) 
1.958785

>  <csv_name>  (96) 
green_site_rna_tunnel_fstein_bulkdock_input_split1000_batch001.csv

>  <inchikey>  (96) 
SFXBVCJTOODOJM-OAHLLOKOSA-N

>  <SLURM_JOB_NAME>  (96) 
BulkDock.place:Flavi_NS5_RdRp:green_site_rna_tunnel_fstein_bulkdock_input_split1000_batch001

>  <SLURM_JOB_ID>  (96) 
217910

>  <name>  (96) 
SFXBVCJTOODOJM-OAHLLOKOSA-N

$$$$
68294
     RDKit          3D

 16 17  0  0  0  0  0  0  0  0999 V2000
  -14.2277  -39.1704  -23.9816 O   0  0  0  0  0  0  0  0  0  0  0  0
  -14.7414  -40.2829  -23.8713 C   0  0  0  0  0  0  0  0  0  0  0  0
  -15.6492  -40.7454  -24.9561 C   0  0  0  0  0  0  0  0  0  0  0  0
  -15.4015  -40.2820  -26.2494 C   0  0  0  0  0  0  0  0  0  0  0  0
  -16.2691  -40.6503  -27.2643 C   0  0  0  0  0  0  0  0  0  0  0  0
  -17.3610  -41.4247  -27.0766 N   0  0  0  0  0  0  0  0  0  0  0  0
  -17.5843  -41.8477  -25.8139 C   0  0  0  0  0  0  0  0  0  0  0  0
  -16.7760  -41.5334  -24.7309 C   0  0  0  0  0  0  0  0  0  0  0  0
  -14.4633  -41.0899  -22.6860 C   0  0  0  0  0  0  0  0  0  0  0  0
  -13.7115  -40.5880  -21.6347 C   0  0  0  0  0  0  0  0  0  0  0  0
  -13.6025  -41.5435  -20.6739 N   0  0  0  0  0  0  0  0  0  0  0  0
  -14.3201  -42.6608  -21.0358 C   0  0  0  0  0  0  0  0  0  0  0  0
  -14.5123  -43.8075  -20.1955 C   0  0  0  0  0  0  0  0  0  0  0  0
  -15.0928  -44.8511  -20.4563 O   0  0  0  0  0  0  0  0  0  0  0  0
  -14.0271  -43.5868  -18.9528 O   0  0  0  0  0  0  0  0  0  0  0  0
  -14.7854  -42.4304  -22.3219 C   0  0  0  0  0  0  0  0  0  0  0  0
  1  2  2  0
  2  3  1  0
  3  4  2  0
  4  5  1  0
  5  6  2  0
  6  7  1  0
  7  8  2  0
  2  9  1  0
  9 10  2  0
 10 11  1  0
 11 12  1  0
 12 13  1  0
 13 14  2  0
 13 15  1  0
 12 16  2  0
  8  3  1  0
 16  9  1  0
M  END
>  <fragmenstein_mode>  (97) 
expansion

>  <original SMILES>  (97) 
O=C(c1ccncc1)c1c[nH]c(C(=O)O)c1

>  <fragmenstein_outcome>  (97) 
acceptable

>  <energy_score>  (97) 
-25.216357

>  <tags>  (97) 
['Fragmenstein placed']

>  <original ID>  (97) 
WGIPPIXHAVBWKR-UHFFFAOYSA-N

>  <alias>  (97) 
None

>  <ref_mols>  (97) 
d0160a,d0472a

>  <HIPPO Pose ID>  (97) 
68294

>  <ref_pdb>  (97) 
d0160a

>  <scratch_subdir>  (97) 
/opt/xchem-fragalysis-2/maxwin/BulkDock/SCRATCH/217041/C14314-P12

>  <HIPPO Compound ID>  (97) 
14314

>  <exports>  (97) 
['/opt/xchem-fragalysis-2/maxwin/BulkDock/OUTPUTS/RdRp_knitwork_primer_grip_n_pocket_pure_split1800_batch007_217041.sdf']

>  <fragmenstein_runtime>  (97) 
20.733967

>  <fragmenstein_error>  (97) 
None

>  <distance_score>  (97) 
0.926673

>  <csv_name>  (97) 
RdRp_knitwork_primer_grip_n_pocket_pure_split1800_batch007.csv

>  <inchikey>  (97) 
WGIPPIXHAVBWKR-UHFFFAOYSA-N

>  <SLURM_JOB_NAME>  (97) 
BulkDock.place:Flavi_NS5_RdRp:RdRp_knitwork_primer_grip_n_pocket_pure_split1800_batch007

>  <SLURM_JOB_ID>  (97) 
217041

>  <name>  (97) 
WGIPPIXHAVBWKR-UHFFFAOYSA-N

$$$$
68384
     RDKit          3D

 15 16  0  0  0  0  0  0  0  0999 V2000
  -14.2212  -38.6929  -23.0715 C   0  0  0  0  0  0  0  0  0  0  0  0
  -15.6511  -39.2048  -23.1471 C   0  0  2  0  0  0  0  0  0  0  0  0
  -15.6549  -40.6237  -23.4046 N   0  0  0  0  0  0  0  0  0  0  0  0
  -15.2211  -41.4943  -22.3114 C   0  0  0  0  0  0  0  0  0  0  0  0
  -15.6227  -42.8642  -22.7487 C   0  0  0  0  0  0  0  0  0  0  0  0
  -15.3116  -43.3028  -23.9474 N   0  0  0  0  0  0  0  0  0  0  0  0
  -16.5263  -43.3178  -24.5292 C   0  0  0  0  0  0  0  0  0  0  0  0
  -16.6699  -42.6908  -26.2701 Br  0  0  0  0  0  0  0  0  0  0  0  0
  -17.5002  -43.5817  -23.5958 C   0  0  0  0  0  0  0  0  0  0  0  0
  -16.8316  -43.4305  -22.3938 N   0  0  0  0  0  0  0  0  0  0  0  0
  -16.5065  -38.5263  -24.2011 C   0  0  0  0  0  0  0  0  0  0  0  0
  -16.6454  -38.7175  -25.5708 C   0  0  0  0  0  0  0  0  0  0  0  0
  -17.6611  -37.9948  -26.1979 N   0  0  0  0  0  0  0  0  0  0  0  0
  -18.2255  -37.2155  -25.3044 C   0  0  0  0  0  0  0  0  0  0  0  0
  -17.6354  -37.3249  -23.7068 S   0  0  0  0  0  0  0  0  0  0  0  0
  2  1  1  6
  2  3  1  0
  3  4  1  0
  4  5  1  0
  5  6  2  0
  6  7  1  0
  7  8  1  0
  7  9  2  0
  9 10  1  0
  2 11  1  0
 11 12  2  0
 12 13  1  0
 13 14  2  0
 14 15  1  0
 10  5  1  0
 15 11  1  0
M  END
>  <fragmenstein_mode>  (98) 
expansion

>  <original SMILES>  (98) 
C[C@H](NCc1nc(Br)c[nH]1)c1cncs1

>  <fragmenstein_outcome>  (98) 
acceptable

>  <energy_score>  (98) 
-15.69249

>  <tags>  (98) 
['Fragmenstein placed']

>  <original ID>  (98) 
NPOUPNCGJMKKFK-LURJTMIESA-N

>  <alias>  (98) 
None

>  <ref_mols>  (98) 
d0615b,z0103a

>  <HIPPO Pose ID>  (98) 
68384

>  <ref_pdb>  (98) 
d0615b

>  <scratch_subdir>  (98) 
/opt/xchem-fragalysis-2/maxwin/BulkDock/SCRATCH/217910/C68384-P206

>  <HIPPO Compound ID>  (98) 
10840

>  <exports>  (98) 
nan

>  <fragmenstein_runtime>  (98) 
1.958677

>  <fragmenstein_error>  (98) 
None

>  <distance_score>  (98) 
1.473784

>  <csv_name>  (98) 
green_site_rna_tunnel_fstein_bulkdock_input_split1000_batch001.csv

>  <inchikey>  (98) 
NPOUPNCGJMKKFK-LURJTMIESA-N

>  <SLURM_JOB_NAME>  (98) 
BulkDock.place:Flavi_NS5_RdRp:green_site_rna_tunnel_fstein_bulkdock_input_split1000_batch001

>  <SLURM_JOB_ID>  (98) 
217910

>  <name>  (98) 
NPOUPNCGJMKKFK-LURJTMIESA-N

$$$$
68411
     RDKit          3D

 15 16  0  0  0  0  0  0  0  0999 V2000
  -19.1233  -44.6380  -24.4248 C   0  0  0  0  0  0  0  0  0  0  0  0
  -17.9994  -43.9449  -23.7699 C   0  0  0  0  0  0  0  0  0  0  0  0
  -17.5912  -43.8880  -22.4568 C   0  0  0  0  0  0  0  0  0  0  0  0
  -16.4456  -43.1499  -22.3298 N   0  0  0  0  0  0  0  0  0  0  0  0
  -16.1257  -42.7944  -23.5573 C   0  0  0  0  0  0  0  0  0  0  0  0
  -14.9198  -42.0664  -24.0225 C   0  0  0  0  0  0  0  0  0  0  0  0
  -15.2692  -40.9107  -24.8560 N   0  0  0  0  0  0  0  0  0  0  0  0
  -15.7466  -39.7902  -24.0252 C   0  0  1  0  0  0  0  0  0  0  0  0
  -14.5600  -39.0836  -23.3494 C   0  0  0  0  0  0  0  0  0  0  0  0
  -16.6296  -38.8685  -24.8361 C   0  0  0  0  0  0  0  0  0  0  0  0
  -16.9442  -38.8231  -26.1859 C   0  0  0  0  0  0  0  0  0  0  0  0
  -17.9564  -37.9386  -26.5552 N   0  0  0  0  0  0  0  0  0  0  0  0
  -18.3261  -37.2627  -25.4898 C   0  0  0  0  0  0  0  0  0  0  0  0
  -17.5682  -37.6757  -24.0190 S   0  0  0  0  0  0  0  0  0  0  0  0
  -17.0839  -43.1924  -24.4513 N   0  0  0  0  0  0  0  0  0  0  0  0
  1  2  1  0
  2  3  2  0
  3  4  1  0
  4  5  2  0
  5  6  1  0
  6  7  1  0
  7  8  1  0
  8  9  1  6
  8 10  1  0
 10 11  2  0
 11 12  1  0
 12 13  2  0
 13 14  1  0
  5 15  1  0
 15  2  1  0
 14 10  1  0
M  END
>  <fragmenstein_mode>  (99) 
expansion

>  <original SMILES>  (99) 
Cc1cnc(CN[C@@H](C)c2cncs2)[nH]1

>  <fragmenstein_outcome>  (99) 
acceptable

>  <energy_score>  (99) 
-52.200277

>  <tags>  (99) 
['Fragmenstein placed']

>  <original ID>  (99) 
JVFQXDPMNDGBGU-QMMMGPOBSA-N

>  <alias>  (99) 
None

>  <ref_mols>  (99) 
d0615b,z0103a

>  <HIPPO Pose ID>  (99) 
68411

>  <ref_pdb>  (99) 
d0615b

>  <scratch_subdir>  (99) 
/opt/xchem-fragalysis-2/maxwin/BulkDock/SCRATCH/217047/C11581-P51

>  <HIPPO Compound ID>  (99) 
11581

>  <exports>  (99) 
['/opt/xchem-fragalysis-2/maxwin/BulkDock/OUTPUTS/RdRp_knitwork_primer_grip_n_pocket_pure_split1800_batch013_217047.sdf']

>  <fragmenstein_runtime>  (99) 
2.995201

>  <fragmenstein_error>  (99) 
None

>  <distance_score>  (99) 
0.961717

>  <csv_name>  (99) 
RdRp_knitwork_primer_grip_n_pocket_pure_split1800_batch013.csv

>  <inchikey>  (99) 
JVFQXDPMNDGBGU-QMMMGPOBSA-N

>  <SLURM_JOB_NAME>  (99) 
BulkDock.place:Flavi_NS5_RdRp:RdRp_knitwork_primer_grip_n_pocket_pure_split1800_batch013

>  <SLURM_JOB_ID>  (99) 
217047

>  <name>  (99) 
JVFQXDPMNDGBGU-QMMMGPOBSA-N

$$$$
68430
     RDKit          3D

 15 16  0  0  0  0  0  0  0  0999 V2000
  -16.9902  -47.7971  -20.8032 C   0  0  0  0  0  0  0  0  0  0  0  0
  -18.0684  -46.8328  -21.2321 C   0  0  0  0  0  0  0  0  0  0  0  0
  -17.6808  -45.3518  -21.0175 C   0  0  1  0  0  0  0  0  0  0  0  0
  -17.2831  -44.7605  -22.3879 C   0  0  0  0  0  0  0  0  0  0  0  0
  -16.8696  -43.3745  -22.2596 N   0  0  0  0  0  0  0  0  0  0  0  0
  -16.4168  -42.7139  -23.3891 C   0  0  0  0  0  0  0  0  0  0  0  0
  -17.0445  -42.8046  -24.6286 C   0  0  0  0  0  0  0  0  0  0  0  0
  -16.5700  -42.0439  -25.6948 C   0  0  0  0  0  0  0  0  0  0  0  0
  -15.4993  -41.1896  -25.4895 C   0  0  0  0  0  0  0  0  0  0  0  0
  -14.9433  -41.1484  -24.2256 C   0  0  0  0  0  0  0  0  0  0  0  0
  -15.3723  -41.8920  -23.1826 N   0  0  0  0  0  0  0  0  0  0  0  0
  -18.8127  -44.5970  -20.3150 C   0  0  0  0  0  0  0  0  0  0  0  0
  -18.5421  -44.9107  -18.8606 C   0  0  0  0  0  0  0  0  0  0  0  0
  -17.0306  -44.8844  -18.8100 C   0  0  0  0  0  0  0  0  0  0  0  0
  -16.5544  -45.2666  -20.1076 O   0  0  0  0  0  0  0  0  0  0  0  0
  1  2  1  0
  3  2  1  6
  3  4  1  0
  4  5  1  0
  5  6  1  0
  6  7  2  0
  7  8  1  0
  8  9  2  0
  9 10  1  0
 10 11  2  0
  3 12  1  0
 12 13  1  0
 13 14  1  0
 14 15  1  0
 15  3  1  0
 11  6  1  0
M  END
>  <fragmenstein_mode>  (100) 
expansion

>  <original SMILES>  (100) 
CC[C@@]1(CNc2ccccn2)CCCO1

>  <fragmenstein_outcome>  (100) 
acceptable

>  <energy_score>  (100) 
-47.677908

>  <tags>  (100) 
['Fragmenstein placed']

>  <original ID>  (100) 
JPRNUXAPQYFFIN-LBPRGKRZSA-N

>  <alias>  (100) 
None

>  <ref_mols>  (100) 
d0254a,d0472a

>  <HIPPO Pose ID>  (100) 
68430

>  <ref_pdb>  (100) 
d0472a

>  <scratch_subdir>  (100) 
/opt/xchem-fragalysis-2/maxwin/BulkDock/SCRATCH/217044/C24886-P42

>  <HIPPO Compound ID>  (100) 
24886

>  <exports>  (100) 
['/opt/xchem-fragalysis-2/maxwin/BulkDock/OUTPUTS/RdRp_knitwork_primer_grip_n_pocket_pure_split1800_batch010_217044.sdf']

>  <fragmenstein_runtime>  (100) 
1.64515

>  <fragmenstein_error>  (100) 
None

>  <distance_score>  (100) 
0.867521

>  <csv_name>  (100) 
RdRp_knitwork_primer_grip_n_pocket_pure_split1800_batch010.csv

>  <inchikey>  (100) 
JPRNUXAPQYFFIN-LBPRGKRZSA-N

>  <SLURM_JOB_NAME>  (100) 
BulkDock.place:Flavi_NS5_RdRp:RdRp_knitwork_primer_grip_n_pocket_pure_split1800_batch010

>  <SLURM_JOB_ID>  (100) 
217044

>  <name>  (100) 
JPRNUXAPQYFFIN-LBPRGKRZSA-N

$$$$
68587
     RDKit          3D

 23 24  0  0  0  0  0  0  0  0999 V2000
  -18.2141  -44.7610  -23.2191 C   0  0  0  0  0  0  0  0  0  0  0  0
  -17.0409  -43.7616  -23.0357 C   0  0  1  0  0  0  0  0  0  0  0  0
  -17.3044  -42.7155  -24.1092 C   0  0  0  0  0  0  0  0  0  0  0  0
  -16.4810  -41.5794  -24.3495 N   0  0  0  0  0  0  0  0  0  0  0  0
  -16.0432  -40.4351  -23.4007 C   0  0  0  0  0  0  0  0  0  0  0  0
  -16.2265  -40.2890  -22.2569 O   0  0  0  0  0  0  0  0  0  0  0  0
  -15.3610  -39.3861  -24.2947 C   0  0  0  0  0  0  0  0  0  0  0  0
  -16.4662  -38.6343  -24.9904 C   0  0  0  0  0  0  0  0  0  0  0  0
  -16.9154  -38.6771  -26.2992 C   0  0  0  0  0  0  0  0  0  0  0  0
  -18.0641  -37.9400  -26.5741 N   0  0  0  0  0  0  0  0  0  0  0  0
  -18.4124  -37.2870  -25.4854 C   0  0  0  0  0  0  0  0  0  0  0  0
  -17.4530  -37.5470  -24.0970 S   0  0  0  0  0  0  0  0  0  0  0  0
  -17.0858  -43.3358  -21.5581 C   0  0  0  0  0  0  0  0  0  0  0  0
  -15.8673  -42.8590  -20.9634 N   0  0  0  0  0  0  0  0  0  0  0  0
  -14.7528  -43.6234  -20.1952 C   0  0  0  0  0  0  0  0  0  0  0  0
  -14.6180  -44.7692  -19.9964 O   0  0  0  0  0  0  0  0  0  0  0  0
  -13.7758  -42.6221  -19.5517 C   0  0  0  0  0  0  0  0  0  0  0  0
  -13.1786  -41.5500  -20.3976 C   0  0  0  0  0  0  0  0  0  0  0  0
  -13.3562  -41.1776  -21.7077 C   0  0  0  0  0  0  0  0  0  0  0  0
  -12.6246  -40.0635  -22.0339 N   0  0  0  0  0  0  0  0  0  0  0  0
  -11.9614  -39.7702  -20.9417 C   0  0  0  0  0  0  0  0  0  0  0  0
  -12.2447  -40.6492  -19.9339 N   0  0  0  0  0  0  0  0  0  0  0  0
  -11.6933  -40.5495  -18.6048 C   0  0  0  0  0  0  0  0  0  0  0  0
  2  1  1  1
  2  3  1  0
  3  4  1  0
  4  5  1  0
  5  6  2  0
  5  7  1  0
  7  8  1  0
  8  9  2  0
  9 10  1  0
 10 11  2  0
 11 12  1  0
  2 13  1  0
 13 14  1  0
 14 15  1  0
 15 16  2  0
 15 17  1  0
 17 18  1  0
 18 19  2  0
 19 20  1  0
 20 21  2  0
 21 22  1  0
 22 23  1  0
 12  8  1  0
 22 18  1  0
M  END
>  <fragmenstein_mode>  (101) 
expansion

>  <original SMILES>  (101) 
C[C@@H](CNC(=O)Cc1cncs1)CNC(=O)Cc1cncn1C

>  <fragmenstein_outcome>  (101) 
acceptable

>  <energy_score>  (101) 
-141.075873

>  <tags>  (101) 
['Fragmenstein placed']

>  <original ID>  (101) 
OKCRVQGQXDQLPL-LLVKDONJSA-N

>  <alias>  (101) 
None

>  <ref_mols>  (101) 
d0615b,z0875c

>  <HIPPO Pose ID>  (101) 
68587

>  <ref_pdb>  (101) 
d0615b

>  <scratch_subdir>  (101) 
/opt/xchem-fragalysis-2/maxwin/BulkDock/SCRATCH/217914/C68587-P21

>  <HIPPO Compound ID>  (101) 
10254

>  <exports>  (101) 
['/opt/xchem-fragalysis-2/maxwin/BulkDock/OUTPUTS/RdRp_knitwork_primer_grip_n_pocket_pure_split1800_batch011_217045.sdf']

>  <fragmenstein_runtime>  (101) 
12.47785

>  <fragmenstein_error>  (101) 
None

>  <distance_score>  (101) 
1.490844

>  <csv_name>  (101) 
thumb_site_2_fstein_bulkdock_input_split1000_batch000.csv

>  <inchikey>  (101) 
OKCRVQGQXDQLPL-LLVKDONJSA-N

>  <SLURM_JOB_NAME>  (101) 
BulkDock.place:Flavi_NS5_RdRp:thumb_site_2_fstein_bulkdock_input_split1000_batch000

>  <SLURM_JOB_ID>  (101) 
217914

>  <name>  (101) 
OKCRVQGQXDQLPL-LLVKDONJSA-N

$$$$
68616
     RDKit          3D

 22 23  0  0  0  0  0  0  0  0999 V2000
  -12.7079  -38.1372  -21.8619 C   0  0  0  0  0  0  0  0  0  0  0  0
  -12.7118  -39.5510  -21.8349 O   0  0  0  0  0  0  0  0  0  0  0  0
  -13.9910  -40.1258  -22.0761 C   0  0  0  0  0  0  0  0  0  0  0  0
  -14.4870  -39.8174  -23.5199 C   0  0  0  0  0  0  0  0  0  0  0  0
  -15.5810  -40.7525  -24.0162 N   0  0  0  0  0  0  0  0  0  0  0  0
  -15.4338  -39.8558  -25.2385 C   0  0  0  0  0  0  0  0  0  0  0  0
  -16.6221  -38.9517  -25.4465 C   0  0  0  0  0  0  0  0  0  0  0  0
  -17.2593  -38.6743  -26.6430 C   0  0  0  0  0  0  0  0  0  0  0  0
  -18.3449  -37.8149  -26.5802 N   0  0  0  0  0  0  0  0  0  0  0  0
  -18.4736  -37.3968  -25.3389 C   0  0  0  0  0  0  0  0  0  0  0  0
  -17.3654  -38.0366  -24.2029 S   0  0  0  0  0  0  0  0  0  0  0  0
  -15.1985  -42.2045  -23.8060 C   0  0  0  0  0  0  0  0  0  0  0  0
  -14.6277  -42.9493  -24.5116 O   0  0  0  0  0  0  0  0  0  0  0  0
  -15.7953  -42.6482  -22.4741 C   0  0  0  0  0  0  0  0  0  0  0  0
  -16.9579  -43.4703  -22.7258 N   0  0  0  0  0  0  0  0  0  0  0  0
  -17.3231  -44.5863  -22.0424 C   0  0  0  0  0  0  0  0  0  0  0  0
  -18.2843  -45.2321  -22.6680 N   0  0  0  0  0  0  0  0  0  0  0  0
  -18.5900  -44.4634  -23.7741 C   0  0  0  0  0  0  0  0  0  0  0  0
  -19.4611  -44.9132  -24.8473 C   0  0  0  0  0  0  0  0  0  0  0  0
  -20.0283  -44.1864  -25.6484 O   0  0  0  0  0  0  0  0  0  0  0  0
  -19.5033  -46.2648  -24.9283 O   0  0  0  0  0  0  0  0  0  0  0  0
  -17.8164  -43.3287  -23.7757 C   0  0  0  0  0  0  0  0  0  0  0  0
  1  2  1  0
  2  3  1  0
  3  4  1  0
  4  5  1  0
  5  6  1  0
  6  7  1  0
  7  8  2  0
  8  9  1  0
  9 10  2  0
 10 11  1  0
  5 12  1  0
 12 13  2  0
 12 14  1  0
 14 15  1  0
 15 16  1  0
 16 17  2  0
 17 18  1  0
 18 19  1  0
 19 20  2  0
 19 21  1  0
 18 22  2  0
 11  7  1  0
 22 15  1  0
M  END
>  <fragmenstein_mode>  (102) 
expansion

>  <original SMILES>  (102) 
COCCN(Cc1cncs1)C(=O)Cn1cnc(C(=O)O)c1

>  <fragmenstein_outcome>  (102) 
acceptable

>  <energy_score>  (102) 
6.589745

>  <tags>  (102) 
['Fragmenstein placed']

>  <original ID>  (102) 
PEQWBQJGCBBXLK-UHFFFAOYSA-N

>  <alias>  (102) 
None

>  <ref_mols>  (102) 
d0615b,z0103a

>  <HIPPO Pose ID>  (102) 
68616

>  <ref_pdb>  (102) 
d0615b

>  <scratch_subdir>  (102) 
/opt/xchem-fragalysis-2/maxwin/BulkDock/SCRATCH/217914/C68616-P22

>  <HIPPO Compound ID>  (102) 
13088

>  <exports>  (102) 
nan

>  <fragmenstein_runtime>  (102) 
8.932299

>  <fragmenstein_error>  (102) 
None

>  <distance_score>  (102) 
1.588377

>  <csv_name>  (102) 
thumb_site_2_fstein_bulkdock_input_split1000_batch000.csv

>  <inchikey>  (102) 
PEQWBQJGCBBXLK-UHFFFAOYSA-N

>  <SLURM_JOB_NAME>  (102) 
BulkDock.place:Flavi_NS5_RdRp:thumb_site_2_fstein_bulkdock_input_split1000_batch000

>  <SLURM_JOB_ID>  (102) 
217914

>  <name>  (102) 
PEQWBQJGCBBXLK-UHFFFAOYSA-N

$$$$
68659
     RDKit          3D

 18 20  0  0  0  0  0  0  0  0999 V2000
  -18.3257  -43.2389  -21.8531 C   0  0  0  0  0  0  0  0  0  0  0  0
  -18.7072  -44.6734  -21.4209 C   0  0  1  0  0  0  0  0  0  0  0  0
  -17.5921  -45.5993  -21.7713 C   0  0  0  0  0  0  0  0  0  0  0  0
  -17.0657  -45.4984  -22.9954 N   0  0  0  0  0  0  0  0  0  0  0  0
  -15.7490  -45.1203  -22.6881 O   0  0  0  0  0  0  0  0  0  0  0  0
  -15.6288  -45.2609  -21.3332 C   0  0  0  0  0  0  0  0  0  0  0  0
  -14.6397  -44.4387  -20.6650 C   0  0  0  0  0  0  0  0  0  0  0  0
  -14.0266  -43.3805  -21.3245 C   0  0  0  0  0  0  0  0  0  0  0  0
  -13.2340  -42.5137  -20.5869 C   0  0  0  0  0  0  0  0  0  0  0  0
  -13.0760  -42.7274  -19.2264 C   0  0  0  0  0  0  0  0  0  0  0  0
  -13.7220  -43.8050  -18.6514 C   0  0  0  0  0  0  0  0  0  0  0  0
  -14.4875  -44.6782  -19.3335 N   0  0  0  0  0  0  0  0  0  0  0  0
  -16.6578  -45.8890  -20.8196 N   0  0  0  0  0  0  0  0  0  0  0  0
  -19.0411  -44.6741  -19.9169 C   0  0  1  0  0  0  0  0  0  0  0  0
  -19.4179  -46.0164  -19.3143 C   0  0  0  0  0  0  0  0  0  0  0  0
  -18.3331  -46.3062  -18.3070 C   0  0  0  0  0  0  0  0  0  0  0  0
  -17.7920  -44.9395  -17.9714 C   0  0  0  0  0  0  0  0  0  0  0  0
  -17.9737  -44.1183  -19.1273 O   0  0  0  0  0  0  0  0  0  0  0  0
  2  1  1  1
  2  3  1  0
  3  4  2  0
  4  5  1  0
  5  6  1  0
  6  7  1  0
  7  8  2  0
  8  9  1  0
  9 10  2  0
 10 11  1  0
 11 12  2  0
  6 13  2  0
  2 14  1  0
 14 15  1  1
 15 16  1  0
 16 17  1  0
 17 18  1  0
 13  3  1  0
 18 14  1  0
 12  7  1  0
M  END
>  <fragmenstein_mode>  (103) 
expansion

>  <original SMILES>  (103) 
C[C@@H](c1noc(-c2ccccn2)n1)[C@H]1CCCO1

>  <fragmenstein_outcome>  (103) 
acceptable

>  <energy_score>  (103) 
0.118169

>  <tags>  (103) 
['Fragmenstein placed']

>  <original ID>  (103) 
BVRHNWLXSZKRCW-MWLCHTKSSA-N

>  <alias>  (103) 
None

>  <ref_mols>  (103) 
d0254a,d0472a

>  <HIPPO Pose ID>  (103) 
68659

>  <ref_pdb>  (103) 
d0254a

>  <scratch_subdir>  (103) 
/opt/xchem-fragalysis-2/maxwin/BulkDock/SCRATCH/217914/C68659-P65

>  <HIPPO Compound ID>  (103) 
25020

>  <exports>  (103) 
['/opt/xchem-fragalysis-2/maxwin/BulkDock/OUTPUTS/RdRp_knitwork_primer_grip_n_pocket_pure_split1800_batch010_217044.sdf']

>  <fragmenstein_runtime>  (103) 
4.274779

>  <fragmenstein_error>  (103) 
None

>  <distance_score>  (103) 
1.944348

>  <csv_name>  (103) 
thumb_site_2_fstein_bulkdock_input_split1000_batch000.csv

>  <inchikey>  (103) 
BVRHNWLXSZKRCW-MWLCHTKSSA-N

>  <SLURM_JOB_NAME>  (103) 
BulkDock.place:Flavi_NS5_RdRp:thumb_site_2_fstein_bulkdock_input_split1000_batch000

>  <SLURM_JOB_ID>  (103) 
217914

>  <name>  (103) 
BVRHNWLXSZKRCW-MWLCHTKSSA-N

$$$$
68670
     RDKit          3D

 25 26  0  0  0  0  0  0  0  0999 V2000
  -18.4141  -43.9684  -22.6228 C   0  0  0  0  0  0  0  0  0  0  0  0
  -17.8186  -43.7131  -21.2385 C   0  0  0  0  0  0  0  0  0  0  0  0
  -18.8933  -43.2350  -20.2626 C   0  0  0  0  0  0  0  0  0  0  0  0
  -17.1143  -44.9240  -20.6877 C   0  0  0  0  0  0  0  0  0  0  0  0
  -17.6258  -46.1963  -20.8274 N   0  0  0  0  0  0  0  0  0  0  0  0
  -16.8388  -47.0928  -20.1601 C   0  0  0  0  0  0  0  0  0  0  0  0
  -15.8287  -46.3994  -19.5452 C   0  0  0  0  0  0  0  0  0  0  0  0
  -15.9710  -45.0252  -19.8957 C   0  0  0  0  0  0  0  0  0  0  0  0
  -15.0963  -43.9344  -19.4420 C   0  0  0  0  0  0  0  0  0  0  0  0
  -14.9137  -43.7890  -18.2724 O   0  0  0  0  0  0  0  0  0  0  0  0
  -14.5519  -43.2457  -20.5592 N   0  0  0  0  0  0  0  0  0  0  0  0
  -13.5445  -42.2276  -20.6371 C   0  0  0  0  0  0  0  0  0  0  0  0
  -13.7514  -41.1649  -21.7502 C   0  0  0  0  0  0  0  0  0  0  0  0
  -15.0194  -40.3375  -22.0237 N   0  0  0  0  0  0  0  0  0  0  0  0
  -14.7694  -39.8828  -20.6049 C   0  0  0  0  0  0  0  0  0  0  0  0
  -15.6909  -38.6636  -20.3570 C   0  0  0  0  0  0  0  0  0  0  0  0
  -17.0565  -39.0336  -20.5504 O   0  0  0  0  0  0  0  0  0  0  0  0
  -14.8893  -39.6379  -23.2628 C   0  0  0  0  0  0  0  0  0  0  0  0
  -14.4619  -38.5390  -23.4972 O   0  0  0  0  0  0  0  0  0  0  0  0
  -15.4826  -40.3791  -24.4415 C   0  0  0  0  0  0  0  0  0  0  0  0
  -15.5365  -39.7352  -25.6835 C   0  0  0  0  0  0  0  0  0  0  0  0
  -16.1486  -40.3784  -26.7476 C   0  0  0  0  0  0  0  0  0  0  0  0
  -16.7132  -41.6012  -26.6597 N   0  0  0  0  0  0  0  0  0  0  0  0
  -16.6170  -42.2190  -25.4645 C   0  0  0  0  0  0  0  0  0  0  0  0
  -16.0318  -41.6567  -24.3387 C   0  0  0  0  0  0  0  0  0  0  0  0
  1  2  1  0
  2  3  1  0
  2  4  1  0
  4  5  1  0
  5  6  1  0
  6  7  2  0
  7  8  1  0
  8  9  1  0
  9 10  2  0
  9 11  1  0
 11 12  1  0
 12 13  1  0
 13 14  1  0
 14 15  1  0
 15 16  1  0
 16 17  1  0
 14 18  1  0
 18 19  2  0
 18 20  1  0
 20 21  2  0
 21 22  1  0
 22 23  2  0
 23 24  1  0
 24 25  2  0
  8  4  2  0
 25 20  1  0
M  END
>  <fragmenstein_mode>  (104) 
expansion

>  <original SMILES>  (104) 
CC(C)c1[nH]ccc1C(=O)NCCN(CCO)C(=O)c1ccncc1

>  <fragmenstein_outcome>  (104) 
acceptable

>  <energy_score>  (104) 
16.612887

>  <tags>  (104) 
['Fragmenstein placed']

>  <original ID>  (104) 
VZHCCDLJUPHCRO-UHFFFAOYSA-N

>  <alias>  (104) 
None

>  <ref_mols>  (104) 
d0160a,d0472a

>  <HIPPO Pose ID>  (104) 
68670

>  <ref_pdb>  (104) 
d0160a

>  <scratch_subdir>  (104) 
/opt/xchem-fragalysis-2/maxwin/BulkDock/SCRATCH/217914/C68670-P27

>  <HIPPO Compound ID>  (104) 
15286

>  <exports>  (104) 
nan

>  <fragmenstein_runtime>  (104) 
3.881038

>  <fragmenstein_error>  (104) 
None

>  <distance_score>  (104) 
1.963433

>  <csv_name>  (104) 
thumb_site_2_fstein_bulkdock_input_split1000_batch000.csv

>  <inchikey>  (104) 
VZHCCDLJUPHCRO-UHFFFAOYSA-N

>  <SLURM_JOB_NAME>  (104) 
BulkDock.place:Flavi_NS5_RdRp:thumb_site_2_fstein_bulkdock_input_split1000_batch000

>  <SLURM_JOB_ID>  (104) 
217914

>  <name>  (104) 
VZHCCDLJUPHCRO-UHFFFAOYSA-N

$$$$
68678
     RDKit          3D

 19 20  0  0  0  0  0  0  0  0999 V2000
  -18.4363  -37.1264  -25.4694 C   0  0  0  0  0  0  0  0  0  0  0  0
  -17.8808  -38.5159  -25.2865 C   0  0  0  0  0  0  0  0  0  0  0  0
  -17.7936  -39.0865  -26.5167 F   0  0  0  0  0  0  0  0  0  0  0  0
  -16.6226  -38.4381  -24.7908 F   0  0  0  0  0  0  0  0  0  0  0  0
  -18.7286  -39.3943  -24.3778 C   0  0  0  0  0  0  0  0  0  0  0  0
  -18.2192  -40.8595  -24.4219 C   0  0  0  0  0  0  0  0  0  0  0  0
  -19.1978  -41.9973  -23.3482 S   0  0  0  0  0  0  0  0  0  0  0  0
  -18.6236  -43.6448  -23.9726 C   0  0  0  0  0  0  0  0  0  0  0  0
  -18.0102  -44.5205  -22.9117 C   0  0  0  0  0  0  0  0  0  0  0  0
  -18.3035  -45.8285  -22.5607 C   0  0  0  0  0  0  0  0  0  0  0  0
  -17.3464  -46.3256  -21.2177 S   0  0  0  0  0  0  0  0  0  0  0  0
  -16.4833  -44.8509  -21.3290 C   0  0  0  0  0  0  0  0  0  0  0  0
  -15.3435  -44.5262  -20.4790 C   0  0  0  0  0  0  0  0  0  0  0  0
  -14.3672  -43.6612  -20.9709 C   0  0  0  0  0  0  0  0  0  0  0  0
  -13.3721  -43.2203  -20.1139 C   0  0  0  0  0  0  0  0  0  0  0  0
  -13.3979  -43.6307  -18.7901 C   0  0  0  0  0  0  0  0  0  0  0  0
  -14.4025  -44.4981  -18.3874 C   0  0  0  0  0  0  0  0  0  0  0  0
  -15.3540  -44.9906  -19.2055 N   0  0  0  0  0  0  0  0  0  0  0  0
  -16.9115  -44.0207  -22.2559 N   0  0  0  0  0  0  0  0  0  0  0  0
  1  2  1  0
  2  3  1  0
  2  4  1  0
  2  5  1  0
  5  6  1  0
  6  7  1  0
  7  8  1  0
  8  9  1  0
  9 10  2  0
 10 11  1  0
 11 12  1  0
 12 13  1  0
 13 14  2  0
 14 15  1  0
 15 16  2  0
 16 17  1  0
 17 18  2  0
 12 19  2  0
 19  9  1  0
 18 13  1  0
M  END
>  <fragmenstein_mode>  (105) 
expansion

>  <original SMILES>  (105) 
CC(F)(F)CCSCc1csc(-c2ccccn2)n1

>  <fragmenstein_outcome>  (105) 
acceptable

>  <energy_score>  (105) 
-35.803295

>  <tags>  (105) 
['Fragmenstein placed']

>  <original ID>  (105) 
LOJDYOQALPVEMW-UHFFFAOYSA-N

>  <alias>  (105) 
None

>  <ref_mols>  (105) 
d0472a,d0615b

>  <HIPPO Pose ID>  (105) 
68678

>  <ref_pdb>  (105) 
d0472a

>  <scratch_subdir>  (105) 
/opt/xchem-fragalysis-2/maxwin/BulkDock/SCRATCH/217914/C68678-P50

>  <HIPPO Compound ID>  (105) 
9221

>  <exports>  (105) 
nan

>  <fragmenstein_runtime>  (105) 
4.161204

>  <fragmenstein_error>  (105) 
None

>  <distance_score>  (105) 
1.644607

>  <csv_name>  (105) 
thumb_site_2_fstein_bulkdock_input_split1000_batch000.csv

>  <inchikey>  (105) 
LOJDYOQALPVEMW-UHFFFAOYSA-N

>  <SLURM_JOB_NAME>  (105) 
BulkDock.place:Flavi_NS5_RdRp:thumb_site_2_fstein_bulkdock_input_split1000_batch000

>  <SLURM_JOB_ID>  (105) 
217914

>  <name>  (105) 
LOJDYOQALPVEMW-UHFFFAOYSA-N

$$$$
68680
     RDKit          3D

 25 26  0  0  0  0  0  0  0  0999 V2000
  -18.7016  -44.0654  -23.0488 C   0  0  0  0  0  0  0  0  0  0  0  0
  -18.2789  -43.9270  -21.5864 C   0  0  0  0  0  0  0  0  0  0  0  0
  -19.4921  -43.6616  -20.6945 C   0  0  0  0  0  0  0  0  0  0  0  0
  -17.5176  -45.1328  -21.1051 C   0  0  0  0  0  0  0  0  0  0  0  0
  -17.9570  -46.4169  -21.3390 N   0  0  0  0  0  0  0  0  0  0  0  0
  -17.1092  -47.3182  -20.7567 C   0  0  0  0  0  0  0  0  0  0  0  0
  -16.1490  -46.6173  -20.0751 C   0  0  0  0  0  0  0  0  0  0  0  0
  -16.3689  -45.2318  -20.3253 C   0  0  0  0  0  0  0  0  0  0  0  0
  -15.5301  -44.1416  -19.8202 C   0  0  0  0  0  0  0  0  0  0  0  0
  -15.4092  -44.0024  -18.6414 O   0  0  0  0  0  0  0  0  0  0  0  0
  -14.9077  -43.4643  -20.9046 N   0  0  0  0  0  0  0  0  0  0  0  0
  -13.8727  -42.4707  -20.9239 C   0  0  0  0  0  0  0  0  0  0  0  0
  -14.0334  -41.3378  -21.9739 C   0  0  0  0  0  0  0  0  0  0  0  0
  -15.2627  -40.4439  -22.1995 N   0  0  0  0  0  0  0  0  0  0  0  0
  -14.9979  -40.0822  -20.7552 C   0  0  0  0  0  0  0  0  0  0  0  0
  -15.8473  -38.8261  -20.4415 C   0  0  0  0  0  0  0  0  0  0  0  0
  -17.2316  -39.0997  -20.6551 O   0  0  0  0  0  0  0  0  0  0  0  0
  -15.0988  -39.6806  -23.3957 C   0  0  0  0  0  0  0  0  0  0  0  0
  -14.6244  -38.5897  -23.5663 O   0  0  0  0  0  0  0  0  0  0  0  0
  -15.7190  -40.3296  -24.6114 C   0  0  0  0  0  0  0  0  0  0  0  0
  -15.6186  -39.6851  -25.8491 C   0  0  0  0  0  0  0  0  0  0  0  0
  -16.2568  -40.2428  -26.9463 C   0  0  0  0  0  0  0  0  0  0  0  0
  -16.9832  -41.3806  -26.8975 N   0  0  0  0  0  0  0  0  0  0  0  0
  -17.0387  -41.9992  -25.6996 C   0  0  0  0  0  0  0  0  0  0  0  0
  -16.4410  -41.5204  -24.5424 C   0  0  0  0  0  0  0  0  0  0  0  0
  1  2  1  0
  2  3  1  0
  2  4  1  0
  4  5  1  0
  5  6  1  0
  6  7  2  0
  7  8  1  0
  8  9  1  0
  9 10  2  0
  9 11  1  0
 11 12  1  0
 12 13  1  0
 13 14  1  0
 14 15  1  0
 15 16  1  0
 16 17  1  0
 14 18  1  0
 18 19  2  0
 18 20  1  0
 20 21  2  0
 21 22  1  0
 22 23  2  0
 23 24  1  0
 24 25  2  0
  8  4  2  0
 25 20  1  0
M  END
>  <fragmenstein_mode>  (106) 
expansion

>  <original SMILES>  (106) 
CC(C)c1[nH]ccc1C(=O)NCCN(CCO)C(=O)c1ccncc1

>  <fragmenstein_outcome>  (106) 
acceptable

>  <energy_score>  (106) 
16.770794

>  <tags>  (106) 
['Fragmenstein placed']

>  <original ID>  (106) 
VZHCCDLJUPHCRO-UHFFFAOYSA-N

>  <alias>  (106) 
None

>  <ref_mols>  (106) 
d0160a,d0472a

>  <HIPPO Pose ID>  (106) 
68680

>  <ref_pdb>  (106) 
d0472a

>  <scratch_subdir>  (106) 
/opt/xchem-fragalysis-2/maxwin/BulkDock/SCRATCH/217914/C68680-P53

>  <HIPPO Compound ID>  (106) 
15286

>  <exports>  (106) 
nan

>  <fragmenstein_runtime>  (106) 
4.480051

>  <fragmenstein_error>  (106) 
None

>  <distance_score>  (106) 
1.835177

>  <csv_name>  (106) 
thumb_site_2_fstein_bulkdock_input_split1000_batch000.csv

>  <inchikey>  (106) 
VZHCCDLJUPHCRO-UHFFFAOYSA-N

>  <SLURM_JOB_NAME>  (106) 
BulkDock.place:Flavi_NS5_RdRp:thumb_site_2_fstein_bulkdock_input_split1000_batch000

>  <SLURM_JOB_ID>  (106) 
217914

>  <name>  (106) 
VZHCCDLJUPHCRO-UHFFFAOYSA-N

$$$$
68710
     RDKit          3D

 18 19  0  0  0  0  0  0  0  0999 V2000
  -13.7668  -43.6846  -21.2919 C   0  0  0  0  0  0  0  0  0  0  0  0
  -14.5418  -42.4567  -20.8869 C   0  0  0  0  0  0  0  0  0  0  0  0
  -14.8425  -42.3535  -19.3762 C   0  0  2  0  0  0  0  0  0  0  0  0
  -13.6527  -42.5883  -18.6101 O   0  0  0  0  0  0  0  0  0  0  0  0
  -13.7275  -43.9323  -18.1484 C   0  0  0  0  0  0  0  0  0  0  0  0
  -15.1807  -44.4228  -18.1802 C   0  0  0  0  0  0  0  0  0  0  0  0
  -15.9512  -43.2691  -18.7933 C   0  0  2  0  0  0  0  0  0  0  0  0
  -16.8732  -43.5497  -19.8407 N   0  0  0  0  0  0  0  0  0  0  0  0
  -16.8959  -44.6992  -20.8691 C   0  0  0  0  0  0  0  0  0  0  0  0
  -16.2279  -45.6085  -20.9636 O   0  0  0  0  0  0  0  0  0  0  0  0
  -18.0203  -44.1935  -21.7825 N   0  0  0  0  0  0  0  0  0  0  0  0
  -18.4696  -44.6750  -23.0473 C   0  0  0  0  0  0  0  0  0  0  0  0
  -17.7141  -43.7763  -24.0431 C   0  0  0  0  0  0  0  0  0  0  0  0
  -18.3791  -42.9993  -24.9848 C   0  0  0  0  0  0  0  0  0  0  0  0
  -17.6584  -42.0767  -25.7544 C   0  0  0  0  0  0  0  0  0  0  0  0
  -16.2872  -41.9497  -25.5887 C   0  0  0  0  0  0  0  0  0  0  0  0
  -15.6708  -42.7664  -24.6355 C   0  0  0  0  0  0  0  0  0  0  0  0
  -16.3443  -43.6660  -23.8813 N   0  0  0  0  0  0  0  0  0  0  0  0
  1  2  1  0
  3  2  1  6
  3  4  1  0
  4  5  1  0
  5  6  1  0
  6  7  1  0
  7  8  1  6
  8  9  1  0
  9 10  2  0
  9 11  1  0
 11 12  1  0
 12 13  1  0
 13 14  2  0
 14 15  1  0
 15 16  2  0
 16 17  1  0
 17 18  2  0
  7  3  1  0
 18 13  1  0
M  END
>  <fragmenstein_mode>  (107) 
expansion

>  <original SMILES>  (107) 
CC[C@@H]1OCC[C@@H]1NC(=O)NCc1ccccn1

>  <fragmenstein_outcome>  (107) 
acceptable

>  <energy_score>  (107) 
-5.170912

>  <tags>  (107) 
['Fragmenstein placed']

>  <original ID>  (107) 
FSXPLQXXHLGGOZ-RYUDHWBXSA-N

>  <alias>  (107) 
None

>  <ref_mols>  (107) 
d0254a,d0472a

>  <HIPPO Pose ID>  (107) 
68710

>  <ref_pdb>  (107) 
d0472a

>  <scratch_subdir>  (107) 
/opt/xchem-fragalysis-2/maxwin/BulkDock/SCRATCH/217914/C68710-P53

>  <HIPPO Compound ID>  (107) 
25040

>  <exports>  (107) 
['/opt/xchem-fragalysis-2/maxwin/BulkDock/OUTPUTS/RdRp_knitwork_primer_grip_n_pocket_pure_split1800_batch010_217044.sdf']

>  <fragmenstein_runtime>  (107) 
4.783697

>  <fragmenstein_error>  (107) 
None

>  <distance_score>  (107) 
1.97318

>  <csv_name>  (107) 
thumb_site_2_fstein_bulkdock_input_split1000_batch000.csv

>  <inchikey>  (107) 
FSXPLQXXHLGGOZ-RYUDHWBXSA-N

>  <SLURM_JOB_NAME>  (107) 
BulkDock.place:Flavi_NS5_RdRp:thumb_site_2_fstein_bulkdock_input_split1000_batch000

>  <SLURM_JOB_ID>  (107) 
217914

>  <name>  (107) 
FSXPLQXXHLGGOZ-RYUDHWBXSA-N

$$$$
68784
     RDKit          3D

 24 25  0  0  0  0  0  0  0  0999 V2000
  -16.4777  -38.6962  -19.2473 C   0  0  0  0  0  0  0  0  0  0  0  0
  -16.2248  -39.7151  -20.3643 C   0  0  0  0  0  0  0  0  0  0  0  0
  -15.8879  -41.0788  -19.8312 N   0  0  0  0  0  0  0  0  0  0  0  0
  -14.4458  -40.5847  -20.1004 C   0  0  0  0  0  0  0  0  0  0  0  0
  -13.7268  -41.1258  -21.3672 C   0  0  0  0  0  0  0  0  0  0  0  0
  -14.4752  -40.9838  -22.5867 N   0  0  0  0  0  0  0  0  0  0  0  0
  -14.4533  -39.9660  -23.5862 C   0  0  0  0  0  0  0  0  0  0  0  0
  -13.8626  -38.9270  -23.6291 O   0  0  0  0  0  0  0  0  0  0  0  0
  -15.3071  -40.3017  -24.7930 C   0  0  0  0  0  0  0  0  0  0  0  0
  -15.7663  -39.2580  -25.5995 C   0  0  0  0  0  0  0  0  0  0  0  0
  -16.5428  -39.5653  -26.7070 C   0  0  0  0  0  0  0  0  0  0  0  0
  -16.9038  -40.8202  -27.0575 N   0  0  0  0  0  0  0  0  0  0  0  0
  -16.4067  -41.8142  -26.2925 C   0  0  0  0  0  0  0  0  0  0  0  0
  -15.6118  -41.6135  -25.1730 C   0  0  0  0  0  0  0  0  0  0  0  0
  -16.0768  -42.3727  -20.3987 C   0  0  0  0  0  0  0  0  0  0  0  0
  -16.4713  -42.6981  -21.4872 O   0  0  0  0  0  0  0  0  0  0  0  0
  -15.8084  -43.4217  -19.3808 C   0  0  0  0  0  0  0  0  0  0  0  0
  -15.2123  -43.2635  -18.0892 C   0  0  0  0  0  0  0  0  0  0  0  0
  -15.1862  -44.4865  -17.4675 C   0  0  0  0  0  0  0  0  0  0  0  0
  -15.7761  -45.3869  -18.3054 N   0  0  0  0  0  0  0  0  0  0  0  0
  -16.1395  -44.7779  -19.4872 C   0  0  0  0  0  0  0  0  0  0  0  0
  -16.8270  -45.5353  -20.6034 C   0  0  0  0  0  0  0  0  0  0  0  0
  -16.5957  -47.0444  -20.5269 C   0  0  0  0  0  0  0  0  0  0  0  0
  -18.3297  -45.2555  -20.6139 C   0  0  0  0  0  0  0  0  0  0  0  0
  1  2  1  0
  2  3  1  0
  3  4  1  0
  4  5  1  0
  5  6  1  0
  6  7  1  0
  7  8  2  0
  7  9  1  0
  9 10  2  0
 10 11  1  0
 11 12  2  0
 12 13  1  0
 13 14  2  0
  3 15  1  0
 15 16  2  0
 15 17  1  0
 17 18  1  0
 18 19  2  0
 19 20  1  0
 20 21  1  0
 21 22  1  0
 22 23  1  0
 22 24  1  0
 14  9  1  0
 21 17  2  0
M  END
>  <fragmenstein_mode>  (108) 
expansion

>  <original SMILES>  (108) 
CCN(CCNC(=O)c1ccncc1)C(=O)c1cc[nH]c1C(C)C

>  <fragmenstein_outcome>  (108) 
acceptable

>  <energy_score>  (108) 
29.934597

>  <tags>  (108) 
['Fragmenstein placed']

>  <original ID>  (108) 
SCCOTQRDELFMAJ-UHFFFAOYSA-N

>  <alias>  (108) 
None

>  <ref_mols>  (108) 
d0160a,d0472a

>  <HIPPO Pose ID>  (108) 
68784

>  <ref_pdb>  (108) 
d0472a

>  <scratch_subdir>  (108) 
/opt/xchem-fragalysis-2/maxwin/BulkDock/SCRATCH/217914/C68784-P45

>  <HIPPO Compound ID>  (108) 
15419

>  <exports>  (108) 
nan

>  <fragmenstein_runtime>  (108) 
6.966821

>  <fragmenstein_error>  (108) 
None

>  <distance_score>  (108) 
1.921593

>  <csv_name>  (108) 
thumb_site_2_fstein_bulkdock_input_split1000_batch000.csv

>  <inchikey>  (108) 
SCCOTQRDELFMAJ-UHFFFAOYSA-N

>  <SLURM_JOB_NAME>  (108) 
BulkDock.place:Flavi_NS5_RdRp:thumb_site_2_fstein_bulkdock_input_split1000_batch000

>  <SLURM_JOB_ID>  (108) 
217914

>  <name>  (108) 
SCCOTQRDELFMAJ-UHFFFAOYSA-N

$$$$
68845
     RDKit          3D

 21 23  0  0  0  0  0  0  0  0999 V2000
  -19.1807  -46.6364  -24.2867 O   0  0  0  0  0  0  0  0  0  0  0  0
  -18.7128  -45.9050  -23.5183 C   0  0  0  0  0  0  0  0  0  0  0  0
  -18.4959  -44.4103  -23.5914 N   0  0  0  0  0  0  0  0  0  0  0  0
  -18.7111  -43.5180  -24.6287 O   0  0  0  0  0  0  0  0  0  0  0  0
  -17.7192  -42.5727  -24.4227 C   0  0  0  0  0  0  0  0  0  0  0  0
  -17.6991  -41.8382  -23.2259 C   0  0  0  0  0  0  0  0  0  0  0  0
  -16.5520  -41.1458  -22.8506 C   0  0  0  0  0  0  0  0  0  0  0  0
  -15.4536  -41.1243  -23.7027 C   0  0  0  0  0  0  0  0  0  0  0  0
  -15.5110  -41.7844  -24.9309 C   0  0  0  0  0  0  0  0  0  0  0  0
  -16.6404  -42.5206  -25.2948 C   0  0  0  0  0  0  0  0  0  0  0  0
  -18.0823  -46.2640  -22.2381 C   0  0  0  0  0  0  0  0  0  0  0  0
  -17.9694  -47.4845  -21.6158 C   0  0  0  0  0  0  0  0  0  0  0  0
  -16.8080  -47.3769  -20.3342 S   0  0  0  0  0  0  0  0  0  0  0  0
  -16.5499  -45.7278  -20.7036 C   0  0  0  0  0  0  0  0  0  0  0  0
  -15.4541  -44.9326  -20.1561 C   0  0  0  0  0  0  0  0  0  0  0  0
  -14.7824  -44.0390  -20.9944 C   0  0  0  0  0  0  0  0  0  0  0  0
  -13.7687  -43.2543  -20.4640 C   0  0  0  0  0  0  0  0  0  0  0  0
  -13.4861  -43.3520  -19.1105 C   0  0  0  0  0  0  0  0  0  0  0  0
  -14.2207  -44.2485  -18.3490 C   0  0  0  0  0  0  0  0  0  0  0  0
  -15.1711  -45.0737  -18.8416 N   0  0  0  0  0  0  0  0  0  0  0  0
  -17.3593  -45.2485  -21.6140 N   0  0  0  0  0  0  0  0  0  0  0  0
  1  2  2  0
  2  3  1  0
  3  4  1  0
  4  5  1  0
  5  6  2  0
  6  7  1  0
  7  8  2  0
  8  9  1  0
  9 10  2  0
  2 11  1  0
 11 12  2  0
 12 13  1  0
 13 14  1  0
 14 15  1  0
 15 16  2  0
 16 17  1  0
 17 18  2  0
 18 19  1  0
 19 20  2  0
 14 21  2  0
 10  5  1  0
 21 11  1  0
 20 15  1  0
M  END
>  <fragmenstein_mode>  (109) 
expansion

>  <original SMILES>  (109) 
O=C(NOc1ccccc1)c1csc(-c2ccccn2)n1

>  <fragmenstein_outcome>  (109) 
acceptable

>  <energy_score>  (109) 
-73.538597

>  <tags>  (109) 
['Fragmenstein placed']

>  <original ID>  (109) 
PHSUBCYVDMBACQ-UHFFFAOYSA-N

>  <alias>  (109) 
None

>  <ref_mols>  (109) 
d0472a,d0615b

>  <HIPPO Pose ID>  (109) 
68845

>  <ref_pdb>  (109) 
d0472a

>  <scratch_subdir>  (109) 
/opt/xchem-fragalysis-2/maxwin/BulkDock/SCRATCH/217914/C68845-P29

>  <HIPPO Compound ID>  (109) 
11886

>  <exports>  (109) 
nan

>  <fragmenstein_runtime>  (109) 
3.126727

>  <fragmenstein_error>  (109) 
None

>  <distance_score>  (109) 
1.006938

>  <csv_name>  (109) 
thumb_site_2_fstein_bulkdock_input_split1000_batch000.csv

>  <inchikey>  (109) 
PHSUBCYVDMBACQ-UHFFFAOYSA-N

>  <SLURM_JOB_NAME>  (109) 
BulkDock.place:Flavi_NS5_RdRp:thumb_site_2_fstein_bulkdock_input_split1000_batch000

>  <SLURM_JOB_ID>  (109) 
217914

>  <name>  (109) 
PHSUBCYVDMBACQ-UHFFFAOYSA-N

$$$$
68857
     RDKit          3D

 24 25  0  0  0  0  0  0  0  0999 V2000
  -15.1677  -43.1249  -23.6645 C   0  0  0  0  0  0  0  0  0  0  0  0
  -15.3277  -41.6013  -23.5708 C   0  0  0  0  0  0  0  0  0  0  0  0
  -14.5993  -41.1178  -22.3136 C   0  0  0  0  0  0  0  0  0  0  0  0
  -14.8392  -40.9565  -24.8747 C   0  0  0  0  0  0  0  0  0  0  0  0
  -14.7303  -39.4306  -24.9303 C   0  0  0  0  0  0  0  0  0  0  0  0
  -16.0082  -38.6363  -24.8993 C   0  0  0  0  0  0  0  0  0  0  0  0
  -16.6667  -38.3667  -23.7035 C   0  0  0  0  0  0  0  0  0  0  0  0
  -17.9394  -37.8087  -23.7220 C   0  0  0  0  0  0  0  0  0  0  0  0
  -18.5128  -37.5620  -24.9544 C   0  0  0  0  0  0  0  0  0  0  0  0
  -19.7105  -38.1784  -25.2215 N   0  0  0  0  0  0  0  0  0  0  0  0
  -20.4366  -39.3186  -24.4751 C   0  0  0  0  0  0  0  0  0  0  0  0
  -20.1750  -39.8425  -23.5009 O   0  0  0  0  0  0  0  0  0  0  0  0
  -21.5602  -39.6060  -25.4906 N   0  0  0  0  0  0  0  0  0  0  0  0
  -22.5186  -40.6650  -25.5353 C   0  0  0  0  0  0  0  0  0  0  0  0
  -21.8439  -41.7103  -26.5025 C   0  0  2  0  0  0  0  0  0  0  0  0
  -22.6178  -43.0224  -26.5446 C   0  0  0  0  0  0  0  0  0  0  0  0
  -20.3215  -41.9020  -26.2730 C   0  0  0  0  0  0  0  0  0  0  0  0
  -19.7949  -42.8497  -25.3956 C   0  0  0  0  0  0  0  0  0  0  0  0
  -18.4205  -42.9822  -25.2971 C   0  0  0  0  0  0  0  0  0  0  0  0
  -17.5388  -42.2456  -25.9982 N   0  0  0  0  0  0  0  0  0  0  0  0
  -18.0300  -41.2658  -26.7643 C   0  0  0  0  0  0  0  0  0  0  0  0
  -19.3879  -41.0717  -26.9349 C   0  0  0  0  0  0  0  0  0  0  0  0
  -17.8072  -37.5195  -26.1109 N   0  0  0  0  0  0  0  0  0  0  0  0
  -16.5894  -38.1242  -26.0576 C   0  0  0  0  0  0  0  0  0  0  0  0
  1  2  1  0
  2  3  1  0
  2  4  1  0
  4  5  1  0
  5  6  1  0
  6  7  2  0
  7  8  1  0
  8  9  2  0
  9 10  1  0
 10 11  1  0
 11 12  2  0
 11 13  1  0
 13 14  1  0
 14 15  1  0
 15 16  1  1
 15 17  1  0
 17 18  2  0
 18 19  1  0
 19 20  2  0
 20 21  1  0
 21 22  2  0
  9 23  1  0
 23 24  2  0
 24  6  1  0
 22 17  1  0
M  END
>  <fragmenstein_mode>  (110) 
expansion

>  <original SMILES>  (110) 
CC(C)CCc1ccc(NC(=O)NC[C@H](C)c2ccncc2)nc1

>  <fragmenstein_outcome>  (110) 
acceptable

>  <energy_score>  (110) 
6.551808

>  <tags>  (110) 
['Fragmenstein placed']

>  <original ID>  (110) 
DDNYUOMDCCAGKE-HNNXBMFYSA-N

>  <alias>  (110) 
None

>  <ref_mols>  (110) 
d0160a,d0191a

>  <HIPPO Pose ID>  (110) 
68857

>  <ref_pdb>  (110) 
d0160a

>  <scratch_subdir>  (110) 
/opt/xchem-fragalysis-2/maxwin/BulkDock/SCRATCH/217914/C68857-P52

>  <HIPPO Compound ID>  (110) 
26009

>  <exports>  (110) 
nan

>  <fragmenstein_runtime>  (110) 
1.923007

>  <fragmenstein_error>  (110) 
None

>  <distance_score>  (110) 
1.811078

>  <csv_name>  (110) 
thumb_site_2_fstein_bulkdock_input_split1000_batch000.csv

>  <inchikey>  (110) 
DDNYUOMDCCAGKE-HNNXBMFYSA-N

>  <SLURM_JOB_NAME>  (110) 
BulkDock.place:Flavi_NS5_RdRp:thumb_site_2_fstein_bulkdock_input_split1000_batch000

>  <SLURM_JOB_ID>  (110) 
217914

>  <name>  (110) 
DDNYUOMDCCAGKE-HNNXBMFYSA-N

$$$$
68896
     RDKit          3D

 14 15  0  0  0  0  0  0  0  0999 V2000
  -14.4383  -42.8947  -22.2236 C   0  0  0  0  0  0  0  0  0  0  0  0
  -15.7062  -42.9447  -23.0208 C   0  0  0  0  0  0  0  0  0  0  0  0
  -16.6365  -43.9185  -22.6533 C   0  0  0  0  0  0  0  0  0  0  0  0
  -17.8232  -44.1130  -23.2560 N   0  0  0  0  0  0  0  0  0  0  0  0
  -18.1036  -43.2863  -24.2767 C   0  0  0  0  0  0  0  0  0  0  0  0
  -17.2422  -42.3003  -24.7372 C   0  0  0  0  0  0  0  0  0  0  0  0
  -15.9938  -42.1232  -24.1325 C   0  0  0  0  0  0  0  0  0  0  0  0
  -15.1197  -41.0943  -24.5059 N   0  0  0  0  0  0  0  0  0  0  0  0
  -15.2857  -40.3152  -25.7423 C   0  0  0  0  0  0  0  0  0  0  0  0
  -16.3620  -39.2674  -25.7650 C   0  0  0  0  0  0  0  0  0  0  0  0
  -17.2268  -38.9360  -26.7935 C   0  0  0  0  0  0  0  0  0  0  0  0
  -18.1283  -37.9146  -26.5370 N   0  0  0  0  0  0  0  0  0  0  0  0
  -17.9024  -37.4599  -25.3217 C   0  0  0  0  0  0  0  0  0  0  0  0
  -16.6527  -38.2267  -24.4326 S   0  0  0  0  0  0  0  0  0  0  0  0
  1  2  1  0
  2  3  2  0
  3  4  1  0
  4  5  2  0
  5  6  1  0
  6  7  2  0
  7  8  1  0
  8  9  1  0
  9 10  1  0
 10 11  2  0
 11 12  1  0
 12 13  2  0
 13 14  1  0
  7  2  1  0
 14 10  1  0
M  END
>  <fragmenstein_mode>  (111) 
expansion

>  <original SMILES>  (111) 
Cc1cnccc1NCc1cncs1

>  <fragmenstein_outcome>  (111) 
acceptable

>  <energy_score>  (111) 
-70.643644

>  <tags>  (111) 
['Fragmenstein placed']

>  <original ID>  (111) 
BELNFEYNDRWEIK-UHFFFAOYSA-N

>  <alias>  (111) 
None

>  <ref_mols>  (111) 
d0472a,d0615b

>  <HIPPO Pose ID>  (111) 
68896

>  <ref_pdb>  (111) 
d0472a

>  <scratch_subdir>  (111) 
/opt/xchem-fragalysis-2/maxwin/BulkDock/SCRATCH/217046/C17585-P42

>  <HIPPO Compound ID>  (111) 
17585

>  <exports>  (111) 
['/opt/xchem-fragalysis-2/maxwin/BulkDock/OUTPUTS/RdRp_knitwork_primer_grip_n_pocket_pure_split1800_batch012_217046.sdf']

>  <fragmenstein_runtime>  (111) 
4.247793

>  <fragmenstein_error>  (111) 
None

>  <distance_score>  (111) 
0.884605

>  <csv_name>  (111) 
RdRp_knitwork_primer_grip_n_pocket_pure_split1800_batch012.csv

>  <inchikey>  (111) 
BELNFEYNDRWEIK-UHFFFAOYSA-N

>  <SLURM_JOB_NAME>  (111) 
BulkDock.place:Flavi_NS5_RdRp:RdRp_knitwork_primer_grip_n_pocket_pure_split1800_batch012

>  <SLURM_JOB_ID>  (111) 
217046

>  <name>  (111) 
BELNFEYNDRWEIK-UHFFFAOYSA-N

$$$$
68932
     RDKit          3D

 15 16  0  0  0  0  0  0  0  0999 V2000
  -15.8711  -45.0903  -20.0631 C   0  0  0  0  0  0  0  0  0  0  0  0
  -15.0905  -44.4621  -21.1044 N   0  0  0  0  0  0  0  0  0  0  0  0
  -15.7469  -43.7513  -22.1243 C   0  0  0  0  0  0  0  0  0  0  0  0
  -17.0377  -44.0375  -22.5389 C   0  0  0  0  0  0  0  0  0  0  0  0
  -17.5566  -43.3320  -23.6094 C   0  0  0  0  0  0  0  0  0  0  0  0
  -16.8961  -42.3824  -24.3079 N   0  0  0  0  0  0  0  0  0  0  0  0
  -15.6426  -42.1008  -23.9352 C   0  0  0  0  0  0  0  0  0  0  0  0
  -14.8933  -41.1433  -24.6211 N   0  0  0  0  0  0  0  0  0  0  0  0
  -15.4348  -40.5813  -25.8569 C   0  0  0  0  0  0  0  0  0  0  0  0
  -16.4287  -39.4574  -25.7789 C   0  0  0  0  0  0  0  0  0  0  0  0
  -17.3562  -39.0772  -26.7343 C   0  0  0  0  0  0  0  0  0  0  0  0
  -18.1349  -37.9699  -26.4364 N   0  0  0  0  0  0  0  0  0  0  0  0
  -17.7629  -37.5111  -25.2592 C   0  0  0  0  0  0  0  0  0  0  0  0
  -16.5107  -38.3692  -24.4574 S   0  0  0  0  0  0  0  0  0  0  0  0
  -15.0498  -42.7834  -22.8687 C   0  0  0  0  0  0  0  0  0  0  0  0
  1  2  1  0
  2  3  1  0
  3  4  2  0
  4  5  1  0
  5  6  2  0
  6  7  1  0
  7  8  1  0
  8  9  1  0
  9 10  1  0
 10 11  2  0
 11 12  1  0
 12 13  2  0
 13 14  1  0
  7 15  2  0
 15  3  1  0
 14 10  1  0
M  END
>  <fragmenstein_mode>  (112) 
expansion

>  <original SMILES>  (112) 
CNc1ccnc(NCc2cncs2)c1

>  <fragmenstein_outcome>  (112) 
acceptable

>  <energy_score>  (112) 
-88.304395

>  <tags>  (112) 
['Fragmenstein placed']

>  <original ID>  (112) 
DXWJLJGPVSIGQY-UHFFFAOYSA-N

>  <alias>  (112) 
None

>  <ref_mols>  (112) 
d0472a,d0615b

>  <HIPPO Pose ID>  (112) 
68932

>  <ref_pdb>  (112) 
d0472a

>  <scratch_subdir>  (112) 
/opt/xchem-fragalysis-2/maxwin/BulkDock/SCRATCH/217914/C68932-P46

>  <HIPPO Compound ID>  (112) 
17667

>  <exports>  (112) 
nan

>  <fragmenstein_runtime>  (112) 
2.114656

>  <fragmenstein_error>  (112) 
None

>  <distance_score>  (112) 
1.71992

>  <csv_name>  (112) 
thumb_site_2_fstein_bulkdock_input_split1000_batch000.csv

>  <inchikey>  (112) 
DXWJLJGPVSIGQY-UHFFFAOYSA-N

>  <SLURM_JOB_NAME>  (112) 
BulkDock.place:Flavi_NS5_RdRp:thumb_site_2_fstein_bulkdock_input_split1000_batch000

>  <SLURM_JOB_ID>  (112) 
217914

>  <name>  (112) 
DXWJLJGPVSIGQY-UHFFFAOYSA-N

$$$$
68971
     RDKit          3D

 14 15  0  0  0  0  0  0  0  0999 V2000
  -14.7084  -42.7782  -22.4850 N   0  0  0  0  0  0  0  0  0  0  0  0
  -15.8887  -42.9663  -23.2323 C   0  0  0  0  0  0  0  0  0  0  0  0
  -16.8905  -43.8199  -22.7758 C   0  0  0  0  0  0  0  0  0  0  0  0
  -18.0604  -44.0250  -23.4097 N   0  0  0  0  0  0  0  0  0  0  0  0
  -18.2487  -43.3168  -24.5402 C   0  0  0  0  0  0  0  0  0  0  0  0
  -17.3392  -42.4009  -25.0550 C   0  0  0  0  0  0  0  0  0  0  0  0
  -16.1585  -42.1553  -24.3592 C   0  0  0  0  0  0  0  0  0  0  0  0
  -15.1872  -41.2240  -24.7614 N   0  0  0  0  0  0  0  0  0  0  0  0
  -15.3606  -40.3373  -25.9129 C   0  0  0  0  0  0  0  0  0  0  0  0
  -16.4120  -39.2718  -25.8322 C   0  0  0  0  0  0  0  0  0  0  0  0
  -17.3210  -38.8866  -26.8011 C   0  0  0  0  0  0  0  0  0  0  0  0
  -18.1753  -37.8491  -26.4677 N   0  0  0  0  0  0  0  0  0  0  0  0
  -17.8777  -37.4437  -25.2501 C   0  0  0  0  0  0  0  0  0  0  0  0
  -16.6080  -38.2772  -24.4504 S   0  0  0  0  0  0  0  0  0  0  0  0
  1  2  1  0
  2  3  2  0
  3  4  1  0
  4  5  2  0
  5  6  1  0
  6  7  2  0
  7  8  1  0
  8  9  1  0
  9 10  1  0
 10 11  2  0
 11 12  1  0
 12 13  2  0
 13 14  1  0
  7  2  1  0
 14 10  1  0
M  END
>  <fragmenstein_mode>  (113) 
expansion

>  <original SMILES>  (113) 
Nc1cnccc1NCc1cncs1

>  <fragmenstein_outcome>  (113) 
acceptable

>  <energy_score>  (113) 
-69.207822

>  <tags>  (113) 
['Fragmenstein placed']

>  <original ID>  (113) 
AUMLEUREFZMPKP-UHFFFAOYSA-N

>  <alias>  (113) 
None

>  <ref_mols>  (113) 
d0472a,d0615b

>  <HIPPO Pose ID>  (113) 
68971

>  <ref_pdb>  (113) 
d0472a

>  <scratch_subdir>  (113) 
/opt/xchem-fragalysis-2/maxwin/BulkDock/SCRATCH/217046/C17958-P42

>  <HIPPO Compound ID>  (113) 
17958

>  <exports>  (113) 
['/opt/xchem-fragalysis-2/maxwin/BulkDock/OUTPUTS/RdRp_knitwork_primer_grip_n_pocket_pure_split1800_batch012_217046.sdf']

>  <fragmenstein_runtime>  (113) 
1.598128

>  <fragmenstein_error>  (113) 
None

>  <distance_score>  (113) 
0.944995

>  <csv_name>  (113) 
RdRp_knitwork_primer_grip_n_pocket_pure_split1800_batch012.csv

>  <inchikey>  (113) 
AUMLEUREFZMPKP-UHFFFAOYSA-N

>  <SLURM_JOB_NAME>  (113) 
BulkDock.place:Flavi_NS5_RdRp:RdRp_knitwork_primer_grip_n_pocket_pure_split1800_batch012

>  <SLURM_JOB_ID>  (113) 
217046

>  <name>  (113) 
AUMLEUREFZMPKP-UHFFFAOYSA-N

$$$$
68972
     RDKit          3D

 14 15  0  0  0  0  0  0  0  0999 V2000
  -14.6951  -42.3156  -21.9326 N   0  0  0  0  0  0  0  0  0  0  0  0
  -15.7270  -42.7413  -22.7900 C   0  0  0  0  0  0  0  0  0  0  0  0
  -16.6905  -43.6391  -22.3351 C   0  0  0  0  0  0  0  0  0  0  0  0
  -17.7344  -44.0619  -23.0672 N   0  0  0  0  0  0  0  0  0  0  0  0
  -17.8051  -43.5688  -24.3190 C   0  0  0  0  0  0  0  0  0  0  0  0
  -16.9198  -42.6391  -24.8541 C   0  0  0  0  0  0  0  0  0  0  0  0
  -15.9168  -42.1234  -24.0463 C   0  0  0  0  0  0  0  0  0  0  0  0
  -15.0247  -41.1161  -24.4479 N   0  0  0  0  0  0  0  0  0  0  0  0
  -15.2188  -40.3205  -25.6645 C   0  0  0  0  0  0  0  0  0  0  0  0
  -16.3327  -39.3167  -25.6826 C   0  0  0  0  0  0  0  0  0  0  0  0
  -17.1005  -38.9176  -26.7600 C   0  0  0  0  0  0  0  0  0  0  0  0
  -18.0931  -37.9849  -26.5042 N   0  0  0  0  0  0  0  0  0  0  0  0
  -17.9946  -37.6179  -25.2421 C   0  0  0  0  0  0  0  0  0  0  0  0
  -16.7869  -38.4018  -24.3073 S   0  0  0  0  0  0  0  0  0  0  0  0
  1  2  1  0
  2  3  2  0
  3  4  1  0
  4  5  2  0
  5  6  1  0
  6  7  2  0
  7  8  1  0
  8  9  1  0
  9 10  1  0
 10 11  2  0
 11 12  1  0
 12 13  2  0
 13 14  1  0
  7  2  1  0
 14 10  1  0
M  END
>  <fragmenstein_mode>  (114) 
expansion

>  <original SMILES>  (114) 
Nc1cnccc1NCc1cncs1

>  <fragmenstein_outcome>  (114) 
acceptable

>  <energy_score>  (114) 
-68.884706

>  <tags>  (114) 
['Fragmenstein placed']

>  <original ID>  (114) 
AUMLEUREFZMPKP-UHFFFAOYSA-N

>  <alias>  (114) 
None

>  <ref_mols>  (114) 
d0472a,d0615b

>  <HIPPO Pose ID>  (114) 
68972

>  <ref_pdb>  (114) 
d0615b

>  <scratch_subdir>  (114) 
/opt/xchem-fragalysis-2/maxwin/BulkDock/SCRATCH/217046/C17958-P51

>  <HIPPO Compound ID>  (114) 
17958

>  <exports>  (114) 
['/opt/xchem-fragalysis-2/maxwin/BulkDock/OUTPUTS/RdRp_knitwork_primer_grip_n_pocket_pure_split1800_batch012_217046.sdf']

>  <fragmenstein_runtime>  (114) 
1.789537

>  <fragmenstein_error>  (114) 
None

>  <distance_score>  (114) 
0.871366

>  <csv_name>  (114) 
RdRp_knitwork_primer_grip_n_pocket_pure_split1800_batch012.csv

>  <inchikey>  (114) 
AUMLEUREFZMPKP-UHFFFAOYSA-N

>  <SLURM_JOB_NAME>  (114) 
BulkDock.place:Flavi_NS5_RdRp:RdRp_knitwork_primer_grip_n_pocket_pure_split1800_batch012

>  <SLURM_JOB_ID>  (114) 
217046

>  <name>  (114) 
AUMLEUREFZMPKP-UHFFFAOYSA-N

$$$$
68980
     RDKit          3D

 15 16  0  0  0  0  0  0  0  0999 V2000
  -15.4042  -44.6640  -21.6834 N   0  0  0  0  0  0  0  0  0  0  0  0
  -16.6924  -44.1957  -22.0073 N   0  0  0  0  0  0  0  0  0  0  0  0
  -16.8527  -43.4353  -23.1781 C   0  0  0  0  0  0  0  0  0  0  0  0
  -15.9082  -42.4808  -23.5515 C   0  0  0  0  0  0  0  0  0  0  0  0
  -16.0753  -41.7632  -24.7312 C   0  0  0  0  0  0  0  0  0  0  0  0
  -15.0849  -40.8597  -25.1063 N   0  0  0  0  0  0  0  0  0  0  0  0
  -15.2964  -39.8895  -26.1762 C   0  0  0  0  0  0  0  0  0  0  0  0
  -16.4397  -38.9382  -26.0023 C   0  0  0  0  0  0  0  0  0  0  0  0
  -17.4582  -38.6539  -26.8898 C   0  0  0  0  0  0  0  0  0  0  0  0
  -18.3916  -37.7193  -26.4796 N   0  0  0  0  0  0  0  0  0  0  0  0
  -18.0668  -37.3164  -25.2677 C   0  0  0  0  0  0  0  0  0  0  0  0
  -16.6630  -38.0193  -24.5737 S   0  0  0  0  0  0  0  0  0  0  0  0
  -17.1766  -42.0880  -25.5154 C   0  0  0  0  0  0  0  0  0  0  0  0
  -18.0970  -43.0094  -25.0448 C   0  0  0  0  0  0  0  0  0  0  0  0
  -17.9595  -43.6909  -23.8989 N   0  0  0  0  0  0  0  0  0  0  0  0
  1  2  1  0
  2  3  1  0
  3  4  2  0
  4  5  1  0
  5  6  1  0
  6  7  1  0
  7  8  1  0
  8  9  2  0
  9 10  1  0
 10 11  2  0
 11 12  1  0
  5 13  2  0
 13 14  1  0
 14 15  2  0
 15  3  1  0
 12  8  1  0
M  END
>  <fragmenstein_mode>  (115) 
expansion

>  <original SMILES>  (115) 
NNc1cc(NCc2cncs2)ccn1

>  <fragmenstein_outcome>  (115) 
acceptable

>  <energy_score>  (115) 
-76.769655

>  <tags>  (115) 
['Fragmenstein placed']

>  <original ID>  (115) 
XGMDJKMAPHHRFH-UHFFFAOYSA-N

>  <alias>  (115) 
None

>  <ref_mols>  (115) 
d0472a,d0615b

>  <HIPPO Pose ID>  (115) 
68980

>  <ref_pdb>  (115) 
d0472a

>  <scratch_subdir>  (115) 
/opt/xchem-fragalysis-2/maxwin/BulkDock/SCRATCH/217046/C18043-P42

>  <HIPPO Compound ID>  (115) 
18043

>  <exports>  (115) 
['/opt/xchem-fragalysis-2/maxwin/BulkDock/OUTPUTS/RdRp_knitwork_primer_grip_n_pocket_pure_split1800_batch012_217046.sdf']

>  <fragmenstein_runtime>  (115) 
3.788973

>  <fragmenstein_error>  (115) 
None

>  <distance_score>  (115) 
0.79138

>  <csv_name>  (115) 
RdRp_knitwork_primer_grip_n_pocket_pure_split1800_batch012.csv

>  <inchikey>  (115) 
XGMDJKMAPHHRFH-UHFFFAOYSA-N

>  <SLURM_JOB_NAME>  (115) 
BulkDock.place:Flavi_NS5_RdRp:RdRp_knitwork_primer_grip_n_pocket_pure_split1800_batch012

>  <SLURM_JOB_ID>  (115) 
217046

>  <name>  (115) 
XGMDJKMAPHHRFH-UHFFFAOYSA-N

$$$$
69028
     RDKit          3D

 23 24  0  0  0  0  0  0  0  0999 V2000
  -12.6004  -39.2177  -21.8335 C   0  0  0  0  0  0  0  0  0  0  0  0
  -13.8688  -39.1912  -20.9866 C   0  0  0  0  0  0  0  0  0  0  0  0
  -14.6526  -37.9032  -21.2649 C   0  0  0  0  0  0  0  0  0  0  0  0
  -14.7544  -40.4453  -21.1703 C   0  0  2  0  0  0  0  0  0  0  0  0
  -14.0630  -41.7515  -20.7024 C   0  0  0  0  0  0  0  0  0  0  0  0
  -15.0044  -42.7426  -20.2188 N   0  0  0  0  0  0  0  0  0  0  0  0
  -14.7612  -44.0964  -19.4940 C   0  0  0  0  0  0  0  0  0  0  0  0
  -13.7700  -44.5813  -19.1084 O   0  0  0  0  0  0  0  0  0  0  0  0
  -16.1318  -44.7346  -19.2305 C   0  0  0  0  0  0  0  0  0  0  0  0
  -16.7067  -45.5475  -20.3492 C   0  0  0  0  0  0  0  0  0  0  0  0
  -17.2207  -46.8324  -20.3404 C   0  0  0  0  0  0  0  0  0  0  0  0
  -17.9088  -47.0317  -21.5587 C   0  0  0  0  0  0  0  0  0  0  0  0
  -17.7566  -45.8870  -22.3001 C   0  0  0  0  0  0  0  0  0  0  0  0
  -16.9563  -45.0287  -21.5960 N   0  0  0  0  0  0  0  0  0  0  0  0
  -15.2640  -40.5962  -22.5269 N   0  0  0  0  0  0  0  0  0  0  0  0
  -16.2646  -41.6022  -23.1096 C   0  0  0  0  0  0  0  0  0  0  0  0
  -16.7849  -42.5206  -22.6176 O   0  0  0  0  0  0  0  0  0  0  0  0
  -16.6034  -41.3253  -24.5435 C   0  0  0  0  0  0  0  0  0  0  0  0
  -15.7165  -40.8069  -25.4886 C   0  0  0  0  0  0  0  0  0  0  0  0
  -16.1826  -40.6330  -26.7863 C   0  0  0  0  0  0  0  0  0  0  0  0
  -17.4403  -40.9317  -27.1886 N   0  0  0  0  0  0  0  0  0  0  0  0
  -18.2666  -41.4363  -26.2518 C   0  0  0  0  0  0  0  0  0  0  0  0
  -17.8973  -41.6616  -24.9426 C   0  0  0  0  0  0  0  0  0  0  0  0
  1  2  1  0
  2  3  1  0
  2  4  1  0
  4  5  1  6
  5  6  1  0
  6  7  1  0
  7  8  2  0
  7  9  1  0
  9 10  1  0
 10 11  2  0
 11 12  1  0
 12 13  2  0
 13 14  1  0
  4 15  1  0
 15 16  1  0
 16 17  2  0
 16 18  1  0
 18 19  2  0
 19 20  1  0
 20 21  2  0
 21 22  1  0
 22 23  2  0
 14 10  1  0
 23 18  1  0
M  END
>  <fragmenstein_mode>  (116) 
expansion

>  <original SMILES>  (116) 
CC(C)[C@H](CNC(=O)Cc1ccc[nH]1)NC(=O)c1ccncc1

>  <fragmenstein_outcome>  (116) 
acceptable

>  <energy_score>  (116) 
-66.400014

>  <tags>  (116) 
['Fragmenstein placed']

>  <original ID>  (116) 
QQVUFOGGROOJOT-HNNXBMFYSA-N

>  <alias>  (116) 
None

>  <ref_mols>  (116) 
d0160a,d0472a

>  <HIPPO Pose ID>  (116) 
69028

>  <ref_pdb>  (116) 
d0472a

>  <scratch_subdir>  (116) 
/opt/xchem-fragalysis-2/maxwin/BulkDock/SCRATCH/217914/C69028-P46

>  <HIPPO Compound ID>  (116) 
16164

>  <exports>  (116) 
nan

>  <fragmenstein_runtime>  (116) 
29.421253

>  <fragmenstein_error>  (116) 
None

>  <distance_score>  (116) 
1.811798

>  <csv_name>  (116) 
thumb_site_2_fstein_bulkdock_input_split1000_batch000.csv

>  <inchikey>  (116) 
QQVUFOGGROOJOT-HNNXBMFYSA-N

>  <SLURM_JOB_NAME>  (116) 
BulkDock.place:Flavi_NS5_RdRp:thumb_site_2_fstein_bulkdock_input_split1000_batch000

>  <SLURM_JOB_ID>  (116) 
217914

>  <name>  (116) 
QQVUFOGGROOJOT-HNNXBMFYSA-N

$$$$
69057
     RDKit          3D

 20 21  0  0  0  0  0  0  0  0999 V2000
  -14.9885  -39.0670  -24.0587 C   0  0  0  0  0  0  0  0  0  0  0  0
  -15.8116  -39.9639  -24.9203 C   0  0  0  0  0  0  0  0  0  0  0  0
  -15.8054  -39.8704  -26.3046 C   0  0  0  0  0  0  0  0  0  0  0  0
  -16.5151  -40.8156  -27.0315 C   0  0  0  0  0  0  0  0  0  0  0  0
  -17.2082  -41.8464  -26.4793 N   0  0  0  0  0  0  0  0  0  0  0  0
  -17.1861  -41.9134  -25.1300 C   0  0  0  0  0  0  0  0  0  0  0  0
  -17.5785  -43.0813  -24.5116 N   0  0  0  0  0  0  0  0  0  0  0  0
  -17.7070  -43.4271  -22.9962 C   0  0  0  0  0  0  0  0  0  0  0  0
  -17.5771  -42.7660  -22.0771 O   0  0  0  0  0  0  0  0  0  0  0  0
  -17.9607  -44.9529  -23.1047 N   0  0  0  0  0  0  0  0  0  0  0  0
  -18.0066  -45.9661  -22.0817 C   0  0  0  0  0  0  0  0  0  0  0  0
  -17.3408  -45.7288  -20.7139 C   0  0  2  0  0  0  0  0  0  0  0  0
  -18.3486  -44.9745  -19.8497 C   0  0  0  0  0  0  0  0  0  0  0  0
  -15.9582  -45.1187  -20.5602 C   0  0  0  0  0  0  0  0  0  0  0  0
  -15.1897  -44.6294  -21.6083 C   0  0  0  0  0  0  0  0  0  0  0  0
  -14.0227  -43.9180  -21.3303 C   0  0  0  0  0  0  0  0  0  0  0  0
  -13.6099  -43.7533  -20.0185 C   0  0  0  0  0  0  0  0  0  0  0  0
  -14.3751  -44.3396  -19.0343 C   0  0  0  0  0  0  0  0  0  0  0  0
  -15.5065  -45.0397  -19.2762 N   0  0  0  0  0  0  0  0  0  0  0  0
  -16.5398  -40.9841  -24.3320 C   0  0  0  0  0  0  0  0  0  0  0  0
  1  2  1  0
  2  3  2  0
  3  4  1  0
  4  5  2  0
  5  6  1  0
  6  7  1  0
  7  8  1  0
  8  9  2  0
  8 10  1  0
 10 11  1  0
 11 12  1  0
 12 13  1  1
 12 14  1  0
 14 15  2  0
 15 16  1  0
 16 17  2  0
 17 18  1  0
 18 19  2  0
  6 20  2  0
 20  2  1  0
 19 14  1  0
M  END
>  <fragmenstein_mode>  (117) 
expansion

>  <original SMILES>  (117) 
Cc1ccnc(NC(=O)NC[C@H](C)c2ccccn2)c1

>  <fragmenstein_outcome>  (117) 
acceptable

>  <energy_score>  (117) 
-6.122039

>  <tags>  (117) 
['Fragmenstein placed']

>  <original ID>  (117) 
QCBHBPRJFDZETI-LBPRGKRZSA-N

>  <alias>  (117) 
None

>  <ref_mols>  (117) 
d0160a,d0472a

>  <HIPPO Pose ID>  (117) 
69057

>  <ref_pdb>  (117) 
d0472a

>  <scratch_subdir>  (117) 
/opt/xchem-fragalysis-2/maxwin/BulkDock/SCRATCH/217914/C69057-P48

>  <HIPPO Compound ID>  (117) 
11677

>  <exports>  (117) 
nan

>  <fragmenstein_runtime>  (117) 
1.46965

>  <fragmenstein_error>  (117) 
None

>  <distance_score>  (117) 
1.746607

>  <csv_name>  (117) 
thumb_site_2_fstein_bulkdock_input_split1000_batch000.csv

>  <inchikey>  (117) 
QCBHBPRJFDZETI-LBPRGKRZSA-N

>  <SLURM_JOB_NAME>  (117) 
BulkDock.place:Flavi_NS5_RdRp:thumb_site_2_fstein_bulkdock_input_split1000_batch000

>  <SLURM_JOB_ID>  (117) 
217914

>  <name>  (117) 
QCBHBPRJFDZETI-LBPRGKRZSA-N

$$$$
69070
     RDKit          3D

 15 16  0  0  0  0  0  0  0  0999 V2000
  -14.3123  -42.3815  -24.5544 N   0  0  0  0  0  0  0  0  0  0  0  0
  -15.2794  -41.2732  -24.3922 C   0  0  1  0  0  0  0  0  0  0  0  0
  -15.5871  -40.6177  -25.7606 C   0  0  0  0  0  0  0  0  0  0  0  0
  -16.5454  -39.4534  -25.7500 C   0  0  0  0  0  0  0  0  0  0  0  0
  -17.4701  -39.1050  -26.7213 C   0  0  0  0  0  0  0  0  0  0  0  0
  -18.2083  -37.9541  -26.4915 N   0  0  0  0  0  0  0  0  0  0  0  0
  -17.8089  -37.4289  -25.3527 C   0  0  0  0  0  0  0  0  0  0  0  0
  -16.5753  -38.2699  -24.5095 S   0  0  0  0  0  0  0  0  0  0  0  0
  -16.4608  -41.9220  -23.6851 C   0  0  0  0  0  0  0  0  0  0  0  0
  -16.3021  -42.1288  -22.3082 C   0  0  0  0  0  0  0  0  0  0  0  0
  -16.8572  -43.2659  -21.7411 C   0  0  0  0  0  0  0  0  0  0  0  0
  -17.5870  -44.1236  -22.5490 C   0  0  0  0  0  0  0  0  0  0  0  0
  -18.0206  -45.6734  -21.9730 Cl  0  0  0  0  0  0  0  0  0  0  0  0
  -17.8423  -43.7583  -23.8600 C   0  0  0  0  0  0  0  0  0  0  0  0
  -17.2827  -42.6839  -24.4550 N   0  0  0  0  0  0  0  0  0  0  0  0
  2  1  1  6
  2  3  1  0
  3  4  1  0
  4  5  2  0
  5  6  1  0
  6  7  2  0
  7  8  1  0
  2  9  1  0
  9 10  2  0
 10 11  1  0
 11 12  2  0
 12 13  1  0
 12 14  1  0
 14 15  2  0
  8  4  1  0
 15  9  1  0
M  END
>  <fragmenstein_mode>  (118) 
expansion

>  <original SMILES>  (118) 
N[C@@H](Cc1cncs1)c1ccc(Cl)cn1

>  <fragmenstein_outcome>  (118) 
acceptable

>  <energy_score>  (118) 
-53.853135

>  <tags>  (118) 
['Fragmenstein placed']

>  <original ID>  (118) 
GBAZJNGVJDFORF-VIFPVBQESA-N

>  <alias>  (118) 
None

>  <ref_mols>  (118) 
d0472a,d0615b

>  <HIPPO Pose ID>  (118) 
69070

>  <ref_pdb>  (118) 
d0472a

>  <scratch_subdir>  (118) 
/opt/xchem-fragalysis-2/maxwin/BulkDock/SCRATCH/217046/C18426-P42

>  <HIPPO Compound ID>  (118) 
18426

>  <exports>  (118) 
['/opt/xchem-fragalysis-2/maxwin/BulkDock/OUTPUTS/RdRp_knitwork_primer_grip_n_pocket_pure_split1800_batch012_217046.sdf']

>  <fragmenstein_runtime>  (118) 
1.571964

>  <fragmenstein_error>  (118) 
None

>  <distance_score>  (118) 
0.983284

>  <csv_name>  (118) 
RdRp_knitwork_primer_grip_n_pocket_pure_split1800_batch012.csv

>  <inchikey>  (118) 
GBAZJNGVJDFORF-VIFPVBQESA-N

>  <SLURM_JOB_NAME>  (118) 
BulkDock.place:Flavi_NS5_RdRp:RdRp_knitwork_primer_grip_n_pocket_pure_split1800_batch012

>  <SLURM_JOB_ID>  (118) 
217046

>  <name>  (118) 
GBAZJNGVJDFORF-VIFPVBQESA-N

$$$$
69115
     RDKit          3D

 22 23  0  0  0  0  0  0  0  0999 V2000
   -9.4229  -38.9117  -25.1065 C   0  0  0  0  0  0  0  0  0  0  0  0
  -10.2158  -38.4008  -23.9794 O   0  0  0  0  0  0  0  0  0  0  0  0
   -9.9782  -38.5910  -22.5790 C   0  0  0  0  0  0  0  0  0  0  0  0
  -11.1359  -39.2045  -21.8099 C   0  0  0  0  0  0  0  0  0  0  0  0
  -12.0481  -38.2426  -21.2965 N   0  0  0  0  0  0  0  0  0  0  0  0
  -12.2153  -37.6786  -19.8601 C   0  0  0  0  0  0  0  0  0  0  0  0
  -11.5798  -37.8604  -18.8970 O   0  0  0  0  0  0  0  0  0  0  0  0
  -13.5197  -36.8522  -19.8796 C   0  0  0  0  0  0  0  0  0  0  0  0
  -14.7025  -37.7544  -19.7958 N   0  0  0  0  0  0  0  0  0  0  0  0
  -15.9619  -37.0218  -19.6579 C   0  0  0  0  0  0  0  0  0  0  0  0
  -14.7986  -38.6142  -20.9126 C   0  0  0  0  0  0  0  0  0  0  0  0
  -14.8826  -39.9866  -20.6989 C   0  0  0  0  0  0  0  0  0  0  0  0
  -15.0477  -40.8444  -21.7858 C   0  0  0  0  0  0  0  0  0  0  0  0
  -15.1411  -40.3204  -23.0754 C   0  0  0  0  0  0  0  0  0  0  0  0
  -15.6398  -41.0962  -24.2092 C   0  0  0  0  0  0  0  0  0  0  0  0
  -16.4635  -40.4771  -25.1544 C   0  0  0  0  0  0  0  0  0  0  0  0
  -17.1454  -41.2626  -26.0456 C   0  0  0  0  0  0  0  0  0  0  0  0
  -17.0588  -42.6046  -26.0819 N   0  0  0  0  0  0  0  0  0  0  0  0
  -16.1767  -43.1723  -25.2528 C   0  0  0  0  0  0  0  0  0  0  0  0
  -15.4547  -42.4744  -24.3080 C   0  0  0  0  0  0  0  0  0  0  0  0
  -14.9300  -38.9549  -23.1874 C   0  0  0  0  0  0  0  0  0  0  0  0
  -14.7483  -38.0940  -22.1555 N   0  0  0  0  0  0  0  0  0  0  0  0
  1  2  1  0
  2  3  1  0
  3  4  1  0
  4  5  1  0
  5  6  1  0
  6  7  2  0
  6  8  1  0
  8  9  1  0
  9 10  1  0
  9 11  1  0
 11 12  2  0
 12 13  1  0
 13 14  2  0
 14 15  1  0
 15 16  2  0
 16 17  1  0
 17 18  2  0
 18 19  1  0
 19 20  2  0
 14 21  1  0
 21 22  2  0
 22 11  1  0
 20 15  1  0
M  END
>  <fragmenstein_mode>  (119) 
expansion

>  <original SMILES>  (119) 
COCCNC(=O)CN(C)c1ccc(-c2ccncc2)cn1

>  <fragmenstein_outcome>  (119) 
acceptable

>  <energy_score>  (119) 
-10.188756

>  <tags>  (119) 
['Fragmenstein placed']

>  <original ID>  (119) 
RHGXKFKNZMJLLI-UHFFFAOYSA-N

>  <alias>  (119) 
None

>  <ref_mols>  (119) 
d0160a,d0191a

>  <HIPPO Pose ID>  (119) 
69115

>  <ref_pdb>  (119) 
d0191a

>  <scratch_subdir>  (119) 
/opt/xchem-fragalysis-2/maxwin/BulkDock/SCRATCH/217914/C69115-P53

>  <HIPPO Compound ID>  (119) 
26114

>  <exports>  (119) 
nan

>  <fragmenstein_runtime>  (119) 
10.175415

>  <fragmenstein_error>  (119) 
None

>  <distance_score>  (119) 
1.912154

>  <csv_name>  (119) 
thumb_site_2_fstein_bulkdock_input_split1000_batch000.csv

>  <inchikey>  (119) 
RHGXKFKNZMJLLI-UHFFFAOYSA-N

>  <SLURM_JOB_NAME>  (119) 
BulkDock.place:Flavi_NS5_RdRp:thumb_site_2_fstein_bulkdock_input_split1000_batch000

>  <SLURM_JOB_ID>  (119) 
217914

>  <name>  (119) 
RHGXKFKNZMJLLI-UHFFFAOYSA-N

$$$$
69116
     RDKit          3D

 18 19  0  0  0  0  0  0  0  0999 V2000
  -15.5122  -39.6242  -26.7351 O   0  0  0  0  0  0  0  0  0  0  0  0
  -15.2446  -39.9941  -25.6053 C   0  0  0  0  0  0  0  0  0  0  0  0
  -14.3442  -39.3358  -24.8475 O   0  0  0  0  0  0  0  0  0  0  0  0
  -15.8355  -41.0867  -24.8850 C   0  0  0  0  0  0  0  0  0  0  0  0
  -16.9587  -41.8126  -25.2387 C   0  0  0  0  0  0  0  0  0  0  0  0
  -17.2690  -42.6792  -24.1658 C   0  0  0  0  0  0  0  0  0  0  0  0
  -18.7215  -43.6038  -24.0861 S   0  0  0  0  0  0  0  0  0  0  0  0
  -19.7473  -42.6010  -23.9709 O   0  0  0  0  0  0  0  0  0  0  0  0
  -18.6552  -44.5201  -25.2032 O   0  0  0  0  0  0  0  0  0  0  0  0
  -18.7009  -44.4854  -22.6602 N   0  0  0  0  0  0  0  0  0  0  0  0
  -17.7800  -45.6209  -22.7136 C   0  0  0  0  0  0  0  0  0  0  0  0
  -17.3523  -45.9931  -21.3418 C   0  0  0  0  0  0  0  0  0  0  0  0
  -16.9779  -45.1338  -20.4171 N   0  0  0  0  0  0  0  0  0  0  0  0
  -16.5857  -45.8283  -19.2929 C   0  0  0  0  0  0  0  0  0  0  0  0
  -16.6533  -47.1997  -19.3810 C   0  0  0  0  0  0  0  0  0  0  0  0
  -17.2062  -47.6398  -20.9270 S   0  0  0  0  0  0  0  0  0  0  0  0
  -16.2739  -42.5460  -23.2159 C   0  0  0  0  0  0  0  0  0  0  0  0
  -15.3976  -41.5921  -23.6779 N   0  0  0  0  0  0  0  0  0  0  0  0
  1  2  2  0
  2  3  1  0
  2  4  1  0
  4  5  2  0
  5  6  1  0
  6  7  1  0
  7  8  2  0
  7  9  2  0
  7 10  1  0
 10 11  1  0
 11 12  1  0
 12 13  2  0
 13 14  1  0
 14 15  2  0
 15 16  1  0
  6 17  2  0
 17 18  1  0
 18  4  1  0
 16 12  1  0
M  END
>  <fragmenstein_mode>  (120) 
expansion

>  <original SMILES>  (120) 
O=C(O)c1cc(S(=O)(=O)NCc2nccs2)c[nH]1

>  <fragmenstein_outcome>  (120) 
acceptable

>  <energy_score>  (120) 
-246.41679

>  <tags>  (120) 
['Fragmenstein placed']

>  <original ID>  (120) 
JXVNKNVHNMVNRQ-UHFFFAOYSA-N

>  <alias>  (120) 
None

>  <ref_mols>  (120) 
d0472a,d0615b

>  <HIPPO Pose ID>  (120) 
69116

>  <ref_pdb>  (120) 
d0472a

>  <scratch_subdir>  (120) 
/opt/xchem-fragalysis-2/maxwin/BulkDock/SCRATCH/217914/C69116-P52

>  <HIPPO Compound ID>  (120) 
10384

>  <exports>  (120) 
nan

>  <fragmenstein_runtime>  (120) 
7.674559

>  <fragmenstein_error>  (120) 
None

>  <distance_score>  (120) 
1.480138

>  <csv_name>  (120) 
thumb_site_2_fstein_bulkdock_input_split1000_batch000.csv

>  <inchikey>  (120) 
JXVNKNVHNMVNRQ-UHFFFAOYSA-N

>  <SLURM_JOB_NAME>  (120) 
BulkDock.place:Flavi_NS5_RdRp:thumb_site_2_fstein_bulkdock_input_split1000_batch000

>  <SLURM_JOB_ID>  (120) 
217914

>  <name>  (120) 
JXVNKNVHNMVNRQ-UHFFFAOYSA-N

$$$$
69215
     RDKit          3D

 23 26  0  0  0  0  0  0  0  0999 V2000
  -18.1397  -44.1209  -19.1650 O   0  0  0  0  0  0  0  0  0  0  0  0
  -18.0287  -45.0214  -19.9860 C   0  0  0  0  0  0  0  0  0  0  0  0
  -19.1158  -45.2589  -21.0206 C   0  0  0  0  0  0  0  0  0  0  0  0
  -18.4940  -45.1360  -22.3498 N   0  0  0  0  0  0  0  0  0  0  0  0
  -18.0384  -43.8950  -22.7588 C   0  0  0  0  0  0  0  0  0  0  0  0
  -17.3033  -43.6959  -23.8367 N   0  0  0  0  0  0  0  0  0  0  0  0
  -16.9589  -42.3451  -23.9334 C   0  0  0  0  0  0  0  0  0  0  0  0
  -15.9900  -41.9254  -24.9819 C   0  0  1  0  0  0  0  0  0  0  0  0
  -16.0229  -40.4605  -25.3417 C   0  0  0  0  0  0  0  0  0  0  0  0
  -15.1531  -39.8157  -24.2745 C   0  0  0  0  0  0  0  0  0  0  0  0
  -14.3082  -40.8382  -23.7201 O   0  0  0  0  0  0  0  0  0  0  0  0
  -14.5919  -42.0561  -24.4221 C   0  0  0  0  0  0  0  0  0  0  0  0
  -17.3636  -41.5060  -22.9812 N   0  0  0  0  0  0  0  0  0  0  0  0
  -18.2395  -42.3905  -21.8969 S   0  0  0  0  0  0  0  0  0  0  0  0
  -17.5403  -46.2412  -22.5657 C   0  0  0  0  0  0  0  0  0  0  0  0
  -16.9613  -46.7823  -21.2401 C   0  0  0  0  0  0  0  0  0  0  0  0
  -16.8760  -45.7887  -20.1882 N   0  0  0  0  0  0  0  0  0  0  0  0
  -15.6558  -45.1043  -19.9622 C   0  0  0  0  0  0  0  0  0  0  0  0
  -14.9373  -44.4964  -20.9892 C   0  0  0  0  0  0  0  0  0  0  0  0
  -13.8083  -43.7452  -20.6759 C   0  0  0  0  0  0  0  0  0  0  0  0
  -13.4067  -43.6703  -19.3529 C   0  0  0  0  0  0  0  0  0  0  0  0
  -14.0667  -44.2661  -18.3325 N   0  0  0  0  0  0  0  0  0  0  0  0
  -15.1952  -44.9349  -18.6621 C   0  0  0  0  0  0  0  0  0  0  0  0
  1  2  2  0
  2  3  1  0
  3  4  1  0
  4  5  1  0
  5  6  2  0
  6  7  1  0
  8  7  1  1
  8  9  1  0
  9 10  1  0
 10 11  1  0
 11 12  1  0
  7 13  2  0
 13 14  1  0
  4 15  1  0
 15 16  1  0
 16 17  1  0
 17 18  1  0
 18 19  2  0
 19 20  1  0
 20 21  2  0
 21 22  1  0
 22 23  2  0
 17  2  1  0
 23 18  1  0
 14  5  1  0
 12  8  1  0
M  END
>  <fragmenstein_mode>  (121) 
expansion

>  <original SMILES>  (121) 
O=C1CN(c2nc([C@H]3CCOC3)ns2)CCN1c1cccnc1

>  <fragmenstein_outcome>  (121) 
acceptable

>  <energy_score>  (121) 
-59.658355

>  <tags>  (121) 
['Fragmenstein placed']

>  <original ID>  (121) 
XKQGFFJHKNLDLD-NSHDSACASA-N

>  <alias>  (121) 
None

>  <ref_mols>  (121) 
d0254a,d0472a

>  <HIPPO Pose ID>  (121) 
69215

>  <ref_pdb>  (121) 
d0254a

>  <scratch_subdir>  (121) 
/opt/xchem-fragalysis-2/maxwin/BulkDock/SCRATCH/217914/C69215-P59

>  <HIPPO Compound ID>  (121) 
16185

>  <exports>  (121) 
nan

>  <fragmenstein_runtime>  (121) 
3.312843

>  <fragmenstein_error>  (121) 
None

>  <distance_score>  (121) 
1.695289

>  <csv_name>  (121) 
thumb_site_2_fstein_bulkdock_input_split1000_batch000.csv

>  <inchikey>  (121) 
XKQGFFJHKNLDLD-NSHDSACASA-N

>  <SLURM_JOB_NAME>  (121) 
BulkDock.place:Flavi_NS5_RdRp:thumb_site_2_fstein_bulkdock_input_split1000_batch000

>  <SLURM_JOB_ID>  (121) 
217914

>  <name>  (121) 
XKQGFFJHKNLDLD-NSHDSACASA-N

$$$$
69322
     RDKit          3D

 22 23  0  0  0  0  0  0  0  0999 V2000
  -15.0461  -39.1987  -26.2959 C   0  0  0  0  0  0  0  0  0  0  0  0
  -15.8283  -40.4794  -26.4046 C   0  0  0  0  0  0  0  0  0  0  0  0
  -16.3680  -40.8352  -27.3739 O   0  0  0  0  0  0  0  0  0  0  0  0
  -15.6737  -41.1818  -25.0217 N   0  0  0  0  0  0  0  0  0  0  0  0
  -16.2311  -42.4103  -24.5351 C   0  0  0  0  0  0  0  0  0  0  0  0
  -17.6834  -42.1256  -24.1989 C   0  0  0  0  0  0  0  0  0  0  0  0
  -18.6053  -43.3230  -24.3659 C   0  0  2  0  0  0  0  0  0  0  0  0
  -20.0361  -42.8506  -24.2739 C   0  0  0  0  0  0  0  0  0  0  0  0
  -18.3635  -44.3345  -23.3712 N   0  0  0  0  0  0  0  0  0  0  0  0
  -18.6724  -44.3485  -21.8726 C   0  0  0  0  0  0  0  0  0  0  0  0
  -19.2428  -43.5780  -21.2102 O   0  0  0  0  0  0  0  0  0  0  0  0
  -18.0153  -45.5143  -21.3028 C   0  0  0  0  0  0  0  0  0  0  0  0
  -18.3911  -46.2767  -20.2139 C   0  0  0  0  0  0  0  0  0  0  0  0
  -16.9274  -46.8662  -19.4763 S   0  0  0  0  0  0  0  0  0  0  0  0
  -16.0695  -45.8429  -20.5677 C   0  0  0  0  0  0  0  0  0  0  0  0
  -14.9766  -44.9546  -20.1627 C   0  0  0  0  0  0  0  0  0  0  0  0
  -14.4551  -44.0439  -21.0846 C   0  0  0  0  0  0  0  0  0  0  0  0
  -13.5405  -43.0946  -20.6494 C   0  0  0  0  0  0  0  0  0  0  0  0
  -13.2004  -43.0555  -19.3076 C   0  0  0  0  0  0  0  0  0  0  0  0
  -13.7817  -43.9781  -18.4570 C   0  0  0  0  0  0  0  0  0  0  0  0
  -14.6372  -44.9462  -18.8498 N   0  0  0  0  0  0  0  0  0  0  0  0
  -16.7207  -45.7451  -21.7088 N   0  0  0  0  0  0  0  0  0  0  0  0
  1  2  1  0
  2  3  2  0
  2  4  1  0
  4  5  1  0
  5  6  1  0
  6  7  1  0
  7  8  1  1
  7  9  1  0
  9 10  1  0
 10 11  2  0
 10 12  1  0
 12 13  2  0
 13 14  1  0
 14 15  1  0
 15 16  1  0
 16 17  2  0
 17 18  1  0
 18 19  2  0
 19 20  1  0
 20 21  2  0
 15 22  2  0
 22 12  1  0
 21 16  1  0
M  END
>  <fragmenstein_mode>  (122) 
expansion

>  <original SMILES>  (122) 
CC(=O)NCC[C@H](C)NC(=O)c1csc(-c2ccccn2)n1

>  <fragmenstein_outcome>  (122) 
acceptable

>  <energy_score>  (122) 
-16.955955

>  <tags>  (122) 
['Fragmenstein placed']

>  <original ID>  (122) 
DLXWTSZYEMBMBI-JTQLQIEISA-N

>  <alias>  (122) 
None

>  <ref_mols>  (122) 
d0472a,d0615b

>  <HIPPO Pose ID>  (122) 
69322

>  <ref_pdb>  (122) 
d0472a

>  <scratch_subdir>  (122) 
/opt/xchem-fragalysis-2/maxwin/BulkDock/SCRATCH/217914/C69322-P224

>  <HIPPO Compound ID>  (122) 
13838

>  <exports>  (122) 
nan

>  <fragmenstein_runtime>  (122) 
16.101909

>  <fragmenstein_error>  (122) 
None

>  <distance_score>  (122) 
1.767292

>  <csv_name>  (122) 
thumb_site_2_fstein_bulkdock_input_split1000_batch000.csv

>  <inchikey>  (122) 
DLXWTSZYEMBMBI-JTQLQIEISA-N

>  <SLURM_JOB_NAME>  (122) 
BulkDock.place:Flavi_NS5_RdRp:thumb_site_2_fstein_bulkdock_input_split1000_batch000

>  <SLURM_JOB_ID>  (122) 
217914

>  <name>  (122) 
DLXWTSZYEMBMBI-JTQLQIEISA-N

$$$$
69357
     RDKit          3D

 21 22  0  0  0  0  0  0  0  0999 V2000
  -19.2889  -44.4349  -20.0111 C   0  0  0  0  0  0  0  0  0  0  0  0
  -19.2159  -45.2025  -21.3102 C   0  0  0  0  0  0  0  0  0  0  0  0
  -17.8986  -45.0755  -21.9737 N   0  0  0  0  0  0  0  0  0  0  0  0
  -16.9941  -45.9991  -21.2525 C   0  0  0  0  0  0  0  0  0  0  0  0
  -15.5328  -45.7533  -21.3400 C   0  0  0  0  0  0  0  0  0  0  0  0
  -14.9606  -44.6987  -20.4443 C   0  0  0  0  0  0  0  0  0  0  0  0
  -13.9440  -43.8747  -20.9270 C   0  0  0  0  0  0  0  0  0  0  0  0
  -13.3773  -42.9329  -20.0846 C   0  0  0  0  0  0  0  0  0  0  0  0
  -13.8424  -42.8338  -18.7871 C   0  0  0  0  0  0  0  0  0  0  0  0
  -14.8440  -43.7010  -18.3864 C   0  0  0  0  0  0  0  0  0  0  0  0
  -15.3818  -44.6655  -19.1623 N   0  0  0  0  0  0  0  0  0  0  0  0
  -17.5731  -43.4457  -22.4521 S   0  0  0  0  0  0  0  0  0  0  0  0
  -17.0522  -42.7261  -21.3118 O   0  0  0  0  0  0  0  0  0  0  0  0
  -18.7997  -42.9895  -23.0808 O   0  0  0  0  0  0  0  0  0  0  0  0
  -16.3106  -43.5272  -23.7293 C   0  0  0  0  0  0  0  0  0  0  0  0
  -16.4055  -42.4034  -24.7377 C   0  0  0  0  0  0  0  0  0  0  0  0
  -15.4547  -41.3782  -24.7863 C   0  0  0  0  0  0  0  0  0  0  0  0
  -15.4910  -40.4394  -25.8188 C   0  0  0  0  0  0  0  0  0  0  0  0
  -16.4802  -40.5532  -26.7819 C   0  0  0  0  0  0  0  0  0  0  0  0
  -17.4356  -41.5088  -26.7627 N   0  0  0  0  0  0  0  0  0  0  0  0
  -17.3775  -42.3985  -25.7388 C   0  0  0  0  0  0  0  0  0  0  0  0
  1  2  1  0
  2  3  1  0
  3  4  1  0
  4  5  1  0
  5  6  1  0
  6  7  2  0
  7  8  1  0
  8  9  2  0
  9 10  1  0
 10 11  2  0
  3 12  1  0
 12 13  2  0
 12 14  2  0
 12 15  1  0
 15 16  1  0
 16 17  2  0
 17 18  1  0
 18 19  2  0
 19 20  1  0
 20 21  2  0
 11  6  1  0
 21 16  1  0
M  END
>  <fragmenstein_mode>  (123) 
expansion

>  <original SMILES>  (123) 
CCN(CCc1ccccn1)S(=O)(=O)Cc1cccnc1

>  <fragmenstein_outcome>  (123) 
acceptable

>  <energy_score>  (123) 
-9.64857

>  <tags>  (123) 
['Fragmenstein placed']

>  <original ID>  (123) 
SAGLKOKISYDMQR-UHFFFAOYSA-N

>  <alias>  (123) 
None

>  <ref_mols>  (123) 
d0160a,d0472a

>  <HIPPO Pose ID>  (123) 
69357

>  <ref_pdb>  (123) 
d0160a

>  <scratch_subdir>  (123) 
/opt/xchem-fragalysis-2/maxwin/BulkDock/SCRATCH/217951/C69357-P79

>  <HIPPO Compound ID>  (123) 
12433

>  <exports>  (123) 
nan

>  <fragmenstein_runtime>  (123) 
1.726148

>  <fragmenstein_error>  (123) 
None

>  <distance_score>  (123) 
1.562452

>  <csv_name>  (123) 
RdRp_RS_thumb_merges_split1000_batch000.csv

>  <inchikey>  (123) 
SAGLKOKISYDMQR-UHFFFAOYSA-N

>  <SLURM_JOB_NAME>  (123) 
BulkDock.place:Flavi_NS5_RdRp:RdRp_RS_thumb_merges_split1000_batch000

>  <SLURM_JOB_ID>  (123) 
217951

>  <name>  (123) 
SAGLKOKISYDMQR-UHFFFAOYSA-N

$$$$
69503
     RDKit          3D

 14 15  0  0  0  0  0  0  0  0999 V2000
  -16.3978  -46.4739  -21.0360 N   0  0  0  0  0  0  0  0  0  0  0  0
  -15.8545  -45.3369  -20.4469 C   0  0  0  0  0  0  0  0  0  0  0  0
  -15.9081  -44.1101  -21.0950 C   0  0  0  0  0  0  0  0  0  0  0  0
  -15.4613  -42.9733  -20.4261 C   0  0  0  0  0  0  0  0  0  0  0  0
  -15.5572  -41.7021  -21.0300 N   0  0  0  0  0  0  0  0  0  0  0  0
  -14.4667  -41.4244  -21.9887 C   0  0  0  0  0  0  0  0  0  0  0  0
  -13.1515  -41.0405  -21.3702 C   0  0  0  0  0  0  0  0  0  0  0  0
  -12.3035  -41.8411  -20.6387 C   0  0  0  0  0  0  0  0  0  0  0  0
  -11.2821  -41.0375  -20.2293 N   0  0  0  0  0  0  0  0  0  0  0  0
  -11.5216  -39.7942  -20.7408 C   0  0  0  0  0  0  0  0  0  0  0  0
  -12.6318  -39.7637  -21.4462 N   0  0  0  0  0  0  0  0  0  0  0  0
  -14.8998  -43.1309  -19.1618 C   0  0  0  0  0  0  0  0  0  0  0  0
  -14.8222  -44.4040  -18.6269 C   0  0  0  0  0  0  0  0  0  0  0  0
  -15.2815  -45.5113  -19.2436 N   0  0  0  0  0  0  0  0  0  0  0  0
  1  2  1  0
  2  3  2  0
  3  4  1  0
  4  5  1  0
  5  6  1  0
  6  7  1  0
  7  8  2  0
  8  9  1  0
  9 10  1  0
 10 11  2  0
  4 12  2  0
 12 13  1  0
 13 14  2  0
 14  2  1  0
 11  7  1  0
M  END
>  <fragmenstein_mode>  (124) 
expansion

>  <original SMILES>  (124) 
Nc1cc(NCc2c[nH]cn2)ccn1

>  <fragmenstein_outcome>  (124) 
acceptable

>  <energy_score>  (124) 
-17.539288

>  <tags>  (124) 
['Fragmenstein placed']

>  <original ID>  (124) 
FJIZSRBICNYNGK-UHFFFAOYSA-N

>  <alias>  (124) 
None

>  <ref_mols>  (124) 
d0472a,z0875c

>  <HIPPO Pose ID>  (124) 
69503

>  <ref_pdb>  (124) 
d0472a

>  <scratch_subdir>  (124) 
/opt/xchem-fragalysis-2/maxwin/BulkDock/SCRATCH/217040/C12483-P42

>  <HIPPO Compound ID>  (124) 
12483

>  <exports>  (124) 
['/opt/xchem-fragalysis-2/maxwin/BulkDock/OUTPUTS/RdRp_knitwork_primer_grip_n_pocket_pure_split1800_batch006_217040.sdf']

>  <fragmenstein_runtime>  (124) 
1.807809

>  <fragmenstein_error>  (124) 
None

>  <distance_score>  (124) 
0.992544

>  <csv_name>  (124) 
RdRp_knitwork_primer_grip_n_pocket_pure_split1800_batch006.csv

>  <inchikey>  (124) 
FJIZSRBICNYNGK-UHFFFAOYSA-N

>  <SLURM_JOB_NAME>  (124) 
BulkDock.place:Flavi_NS5_RdRp:RdRp_knitwork_primer_grip_n_pocket_pure_split1800_batch006

>  <SLURM_JOB_ID>  (124) 
217040

>  <name>  (124) 
FJIZSRBICNYNGK-UHFFFAOYSA-N

$$$$
69511
     RDKit          3D

 14 15  0  0  0  0  0  0  0  0999 V2000
  -16.2378  -43.8993  -22.7721 C   0  0  0  0  0  0  0  0  0  0  0  0
  -15.7749  -44.0430  -21.3554 C   0  0  0  0  0  0  0  0  0  0  0  0
  -15.6875  -45.3164  -20.7945 C   0  0  0  0  0  0  0  0  0  0  0  0
  -15.2518  -45.5909  -19.5423 N   0  0  0  0  0  0  0  0  0  0  0  0
  -14.9008  -44.5233  -18.8014 C   0  0  0  0  0  0  0  0  0  0  0  0
  -14.9674  -43.2141  -19.2505 C   0  0  0  0  0  0  0  0  0  0  0  0
  -15.4165  -42.9565  -20.5506 C   0  0  0  0  0  0  0  0  0  0  0  0
  -15.4956  -41.6251  -21.0125 N   0  0  0  0  0  0  0  0  0  0  0  0
  -14.4198  -41.2328  -21.9463 C   0  0  0  0  0  0  0  0  0  0  0  0
  -13.0910  -40.9331  -21.3184 C   0  0  0  0  0  0  0  0  0  0  0  0
  -12.2832  -41.7915  -20.6074 C   0  0  0  0  0  0  0  0  0  0  0  0
  -11.2191  -41.0488  -20.1908 N   0  0  0  0  0  0  0  0  0  0  0  0
  -11.3952  -39.7858  -20.6790 C   0  0  0  0  0  0  0  0  0  0  0  0
  -12.5043  -39.6855  -21.3790 N   0  0  0  0  0  0  0  0  0  0  0  0
  1  2  1  0
  2  3  2  0
  3  4  1  0
  4  5  2  0
  5  6  1  0
  6  7  2  0
  7  8  1  0
  8  9  1  0
  9 10  1  0
 10 11  2  0
 11 12  1  0
 12 13  1  0
 13 14  2  0
  7  2  1  0
 14 10  1  0
M  END
>  <fragmenstein_mode>  (125) 
expansion

>  <original SMILES>  (125) 
Cc1cnccc1NCc1c[nH]cn1

>  <fragmenstein_outcome>  (125) 
acceptable

>  <energy_score>  (125) 
-27.523897

>  <tags>  (125) 
['Fragmenstein placed']

>  <original ID>  (125) 
DJVQSQXCKGQNJE-UHFFFAOYSA-N

>  <alias>  (125) 
None

>  <ref_mols>  (125) 
d0472a,z0875c

>  <HIPPO Pose ID>  (125) 
69511

>  <ref_pdb>  (125) 
d0472a

>  <scratch_subdir>  (125) 
/opt/xchem-fragalysis-2/maxwin/BulkDock/SCRATCH/217040/C12548-P42

>  <HIPPO Compound ID>  (125) 
12548

>  <exports>  (125) 
['/opt/xchem-fragalysis-2/maxwin/BulkDock/OUTPUTS/RdRp_knitwork_primer_grip_n_pocket_pure_split1800_batch006_217040.sdf']

>  <fragmenstein_runtime>  (125) 
1.837259

>  <fragmenstein_error>  (125) 
None

>  <distance_score>  (125) 
0.997294

>  <csv_name>  (125) 
RdRp_knitwork_primer_grip_n_pocket_pure_split1800_batch006.csv

>  <inchikey>  (125) 
DJVQSQXCKGQNJE-UHFFFAOYSA-N

>  <SLURM_JOB_NAME>  (125) 
BulkDock.place:Flavi_NS5_RdRp:RdRp_knitwork_primer_grip_n_pocket_pure_split1800_batch006

>  <SLURM_JOB_ID>  (125) 
217040

>  <name>  (125) 
DJVQSQXCKGQNJE-UHFFFAOYSA-N

$$$$
69558
     RDKit          3D

 12 13  0  0  0  0  0  0  0  0999 V2000
  -15.6115  -40.5490  -25.9421 N   0  0  0  0  0  0  0  0  0  0  0  0
  -15.5737  -41.2194  -24.9975 C   0  0  0  0  0  0  0  0  0  0  0  0
  -15.6025  -42.0644  -23.8536 C   0  0  0  0  0  0  0  0  0  0  0  0
  -14.8566  -41.9491  -22.7026 C   0  0  0  0  0  0  0  0  0  0  0  0
  -15.2047  -43.0317  -21.8621 C   0  0  0  0  0  0  0  0  0  0  0  0
  -16.1800  -43.7764  -22.4983 C   0  0  0  0  0  0  0  0  0  0  0  0
  -16.8231  -44.9680  -22.0197 C   0  0  0  0  0  0  0  0  0  0  0  0
  -16.3663  -45.6238  -20.9714 N   0  0  0  0  0  0  0  0  0  0  0  0
  -17.1455  -46.7354  -20.7313 C   0  0  0  0  0  0  0  0  0  0  0  0
  -18.1817  -46.9253  -21.6149 C   0  0  0  0  0  0  0  0  0  0  0  0
  -18.2349  -45.6280  -22.7310 S   0  0  0  0  0  0  0  0  0  0  0  0
  -16.4118  -43.1675  -23.7164 N   0  0  0  0  0  0  0  0  0  0  0  0
  1  2  3  0
  2  3  1  0
  3  4  2  0
  4  5  1  0
  5  6  2  0
  6  7  1  0
  7  8  2  0
  8  9  1  0
  9 10  2  0
 10 11  1  0
  6 12  1  0
 12  3  1  0
 11  7  1  0
M  END
>  <fragmenstein_mode>  (126) 
expansion

>  <original SMILES>  (126) 
N#Cc1ccc(-c2nccs2)[nH]1

>  <fragmenstein_outcome>  (126) 
acceptable

>  <energy_score>  (126) 
-60.776808

>  <tags>  (126) 
['Fragmenstein placed']

>  <original ID>  (126) 
DVZVZQKDSZQBFI-UHFFFAOYSA-N

>  <alias>  (126) 
None

>  <ref_mols>  (126) 
d0472a,d0615b

>  <HIPPO Pose ID>  (126) 
69558

>  <ref_pdb>  (126) 
d0472a

>  <scratch_subdir>  (126) 
/opt/xchem-fragalysis-2/maxwin/BulkDock/SCRATCH/217046/C25743-P42

>  <HIPPO Compound ID>  (126) 
25743

>  <exports>  (126) 
['/opt/xchem-fragalysis-2/maxwin/BulkDock/OUTPUTS/RdRp_knitwork_primer_grip_n_pocket_pure_split1800_batch012_217046.sdf']

>  <fragmenstein_runtime>  (126) 
1.733986

>  <fragmenstein_error>  (126) 
None

>  <distance_score>  (126) 
0.902807

>  <csv_name>  (126) 
RdRp_knitwork_primer_grip_n_pocket_pure_split1800_batch012.csv

>  <inchikey>  (126) 
DVZVZQKDSZQBFI-UHFFFAOYSA-N

>  <SLURM_JOB_NAME>  (126) 
BulkDock.place:Flavi_NS5_RdRp:RdRp_knitwork_primer_grip_n_pocket_pure_split1800_batch012

>  <SLURM_JOB_ID>  (126) 
217046

>  <name>  (126) 
DVZVZQKDSZQBFI-UHFFFAOYSA-N

$$$$
71026
     RDKit          3D

 14 15  0  0  0  0  0  0  0  0999 V2000
  -14.7559  -39.3276  -23.4576 C   0  0  0  0  0  0  0  0  0  0  0  0
  -14.8193  -40.7405  -23.8434 N   0  0  0  0  0  0  0  0  0  0  0  0
  -15.7669  -40.9316  -24.9017 C   0  0  0  0  0  0  0  0  0  0  0  0
  -17.0020  -41.5536  -24.7023 C   0  0  0  0  0  0  0  0  0  0  0  0
  -17.8797  -41.6717  -25.7740 C   0  0  0  0  0  0  0  0  0  0  0  0
  -17.6366  -41.2055  -27.0173 N   0  0  0  0  0  0  0  0  0  0  0  0
  -16.4247  -40.6279  -27.1965 C   0  0  0  0  0  0  0  0  0  0  0  0
  -15.4459  -40.5132  -26.2089 C   0  0  0  0  0  0  0  0  0  0  0  0
  -14.2297  -39.8654  -26.4835 N   0  0  0  0  0  0  0  0  0  0  0  0
  -14.7173  -41.6346  -22.7594 N   0  0  0  0  0  0  0  0  0  0  0  0
  -14.7356  -43.0072  -22.8730 C   0  0  0  0  0  0  0  0  0  0  0  0
  -14.6166  -43.5666  -21.6217 C   0  0  0  0  0  0  0  0  0  0  0  0
  -14.4370  -42.5064  -20.7101 C   0  0  0  0  0  0  0  0  0  0  0  0
  -14.4898  -41.3340  -21.4331 C   0  0  0  0  0  0  0  0  0  0  0  0
  1  2  1  0
  2  3  1  0
  3  4  2  0
  4  5  1  0
  5  6  2  0
  6  7  1  0
  7  8  2  0
  8  9  1  0
  2 10  1  0
 10 11  1  0
 11 12  2  0
 12 13  1  0
 13 14  2  0
  8  3  1  0
 14 10  1  0
M  END
>  <fragmenstein_mode>  (127) 
expansion

>  <original SMILES>  (127) 
CN(c1ccncc1N)n1cccc1

>  <fragmenstein_outcome>  (127) 
acceptable

>  <energy_score>  (127) 
-34.880312

>  <tags>  (127) 
['Fragmenstein placed']

>  <original ID>  (127) 
SLDQZNAKFVSJAT-UHFFFAOYSA-N

>  <alias>  (127) 
None

>  <ref_mols>  (127) 
d0160a,d0472a

>  <HIPPO Pose ID>  (127) 
71026

>  <ref_pdb>  (127) 
d0160a

>  <scratch_subdir>  (127) 
/opt/xchem-fragalysis-2/maxwin/BulkDock/SCRATCH/217043/C11316-P12

>  <HIPPO Compound ID>  (127) 
11316

>  <exports>  (127) 
['/opt/xchem-fragalysis-2/maxwin/BulkDock/OUTPUTS/RdRp_knitwork_primer_grip_n_pocket_pure_split1800_batch009_217043.sdf']

>  <fragmenstein_runtime>  (127) 
11.851473

>  <fragmenstein_error>  (127) 
None

>  <distance_score>  (127) 
0.823173

>  <csv_name>  (127) 
RdRp_knitwork_primer_grip_n_pocket_pure_split1800_batch009.csv

>  <inchikey>  (127) 
SLDQZNAKFVSJAT-UHFFFAOYSA-N

>  <SLURM_JOB_NAME>  (127) 
BulkDock.place:Flavi_NS5_RdRp:RdRp_knitwork_primer_grip_n_pocket_pure_split1800_batch009

>  <SLURM_JOB_ID>  (127) 
217043

>  <name>  (127) 
SLDQZNAKFVSJAT-UHFFFAOYSA-N

$$$$
71035
     RDKit          3D

 14 15  0  0  0  0  0  0  0  0999 V2000
  -14.7097  -39.2974  -23.4861 C   0  0  0  0  0  0  0  0  0  0  0  0
  -14.7957  -40.7044  -23.8861 N   0  0  0  0  0  0  0  0  0  0  0  0
  -15.7376  -40.8785  -24.9512 C   0  0  0  0  0  0  0  0  0  0  0  0
  -16.9647  -41.5209  -24.7616 C   0  0  0  0  0  0  0  0  0  0  0  0
  -17.8443  -41.6285  -25.8316 C   0  0  0  0  0  0  0  0  0  0  0  0
  -17.6105  -41.1345  -27.0660 N   0  0  0  0  0  0  0  0  0  0  0  0
  -16.4078  -40.5359  -27.2367 C   0  0  0  0  0  0  0  0  0  0  0  0
  -15.4245  -40.4315  -26.2523 C   0  0  0  0  0  0  0  0  0  0  0  0
  -14.2141  -39.7727  -26.5316 N   0  0  0  0  0  0  0  0  0  0  0  0
  -14.7118  -41.6107  -22.8107 N   0  0  0  0  0  0  0  0  0  0  0  0
  -14.6556  -42.9796  -22.9500 C   0  0  0  0  0  0  0  0  0  0  0  0
  -14.5555  -43.5581  -21.7058 C   0  0  0  0  0  0  0  0  0  0  0  0
  -14.4866  -42.5094  -20.7662 C   0  0  0  0  0  0  0  0  0  0  0  0
  -14.5793  -41.3265  -21.4682 C   0  0  0  0  0  0  0  0  0  0  0  0
  1  2  1  0
  2  3  1  0
  3  4  2  0
  4  5  1  0
  5  6  2  0
  6  7  1  0
  7  8  2  0
  8  9  1  0
  2 10  1  0
 10 11  1  0
 11 12  2  0
 12 13  1  0
 13 14  2  0
  8  3  1  0
 14 10  1  0
M  END
>  <fragmenstein_mode>  (128) 
expansion

>  <original SMILES>  (128) 
CN(c1ccncc1N)n1cccc1

>  <fragmenstein_outcome>  (128) 
acceptable

>  <energy_score>  (128) 
-35.437712

>  <tags>  (128) 
['Fragmenstein placed']

>  <original ID>  (128) 
SLDQZNAKFVSJAT-UHFFFAOYSA-N

>  <alias>  (128) 
None

>  <ref_mols>  (128) 
d0160a,d0472a

>  <HIPPO Pose ID>  (128) 
71035

>  <ref_pdb>  (128) 
d0472a

>  <scratch_subdir>  (128) 
/opt/xchem-fragalysis-2/maxwin/BulkDock/SCRATCH/217043/C11316-P42

>  <HIPPO Compound ID>  (128) 
11316

>  <exports>  (128) 
['/opt/xchem-fragalysis-2/maxwin/BulkDock/OUTPUTS/RdRp_knitwork_primer_grip_n_pocket_pure_split1800_batch009_217043.sdf']

>  <fragmenstein_runtime>  (128) 
11.942608

>  <fragmenstein_error>  (128) 
None

>  <distance_score>  (128) 
0.843526

>  <csv_name>  (128) 
RdRp_knitwork_primer_grip_n_pocket_pure_split1800_batch009.csv

>  <inchikey>  (128) 
SLDQZNAKFVSJAT-UHFFFAOYSA-N

>  <SLURM_JOB_NAME>  (128) 
BulkDock.place:Flavi_NS5_RdRp:RdRp_knitwork_primer_grip_n_pocket_pure_split1800_batch009

>  <SLURM_JOB_ID>  (128) 
217043

>  <name>  (128) 
SLDQZNAKFVSJAT-UHFFFAOYSA-N

$$$$
71331
     RDKit          3D

 18 19  0  0  0  0  0  0  0  0999 V2000
  -12.5247  -40.6724  -18.5614 C   0  0  0  0  0  0  0  0  0  0  0  0
  -11.8900  -39.6727  -19.3321 O   0  0  0  0  0  0  0  0  0  0  0  0
  -11.6273  -39.9711  -20.7003 C   0  0  2  0  0  0  0  0  0  0  0  0
  -10.6637  -38.8598  -21.1380 C   0  0  0  0  0  0  0  0  0  0  0  0
  -12.8935  -39.9181  -21.5773 C   0  0  0  0  0  0  0  0  0  0  0  0
  -13.6024  -41.1705  -21.8091 N   0  0  0  0  0  0  0  0  0  0  0  0
  -13.3940  -42.3783  -21.2058 C   0  0  0  0  0  0  0  0  0  0  0  0
  -14.2496  -43.2558  -21.8160 C   0  0  0  0  0  0  0  0  0  0  0  0
  -14.9796  -42.6207  -22.7786 N   0  0  0  0  0  0  0  0  0  0  0  0
  -14.5397  -41.3725  -22.8149 C   0  0  0  0  0  0  0  0  0  0  0  0
  -14.9196  -40.3932  -23.8257 C   0  0  0  0  0  0  0  0  0  0  0  0
  -14.5083  -39.2315  -23.8071 O   0  0  0  0  0  0  0  0  0  0  0  0
  -15.7963  -40.7817  -24.9668 C   0  0  0  0  0  0  0  0  0  0  0  0
  -15.5847  -40.1606  -26.1988 C   0  0  0  0  0  0  0  0  0  0  0  0
  -16.4060  -40.5068  -27.2577 C   0  0  0  0  0  0  0  0  0  0  0  0
  -17.4269  -41.3879  -27.1661 N   0  0  0  0  0  0  0  0  0  0  0  0
  -17.6089  -41.9684  -25.9602 C   0  0  0  0  0  0  0  0  0  0  0  0
  -16.8337  -41.7036  -24.8443 C   0  0  0  0  0  0  0  0  0  0  0  0
  1  2  1  0
  2  3  1  0
  3  4  1  6
  3  5  1  0
  5  6  1  0
  6  7  1  0
  7  8  2  0
  8  9  1  0
  9 10  2  0
 10 11  1  0
 11 12  2  0
 11 13  1  0
 13 14  2  0
 14 15  1  0
 15 16  2  0
 16 17  1  0
 17 18  2  0
 10  6  1  0
 18 13  1  0
M  END
>  <fragmenstein_mode>  (129) 
expansion

>  <original SMILES>  (129) 
CO[C@H](C)Cn1ccnc1C(=O)c1ccncc1

>  <fragmenstein_outcome>  (129) 
acceptable

>  <energy_score>  (129) 
-13.497387

>  <tags>  (129) 
['Fragmenstein placed']

>  <original ID>  (129) 
ABSJUMHEVQDFDW-SNVBAGLBSA-N

>  <alias>  (129) 
None

>  <ref_mols>  (129) 
d0160a,z0875c

>  <HIPPO Pose ID>  (129) 
71331

>  <ref_pdb>  (129) 
d0160a

>  <scratch_subdir>  (129) 
/opt/xchem-fragalysis-2/maxwin/BulkDock/SCRATCH/217044/C26056-P12

>  <HIPPO Compound ID>  (129) 
26056

>  <exports>  (129) 
['/opt/xchem-fragalysis-2/maxwin/BulkDock/OUTPUTS/RdRp_knitwork_primer_grip_n_pocket_pure_split1800_batch010_217044.sdf']

>  <fragmenstein_runtime>  (129) 
3.943735

>  <fragmenstein_error>  (129) 
None

>  <distance_score>  (129) 
0.905872

>  <csv_name>  (129) 
RdRp_knitwork_primer_grip_n_pocket_pure_split1800_batch010.csv

>  <inchikey>  (129) 
ABSJUMHEVQDFDW-SNVBAGLBSA-N

>  <SLURM_JOB_NAME>  (129) 
BulkDock.place:Flavi_NS5_RdRp:RdRp_knitwork_primer_grip_n_pocket_pure_split1800_batch010

>  <SLURM_JOB_ID>  (129) 
217044

>  <name>  (129) 
ABSJUMHEVQDFDW-SNVBAGLBSA-N

$$$$
71583
     RDKit          3D

 22 23  0  0  0  0  0  0  0  0999 V2000
  -14.2525  -43.2401  -23.5616 C   0  0  0  0  0  0  0  0  0  0  0  0
  -15.7127  -43.6519  -23.4446 C   0  0  1  0  0  0  0  0  0  0  0  0
  -16.1630  -44.2593  -22.2473 O   0  0  0  0  0  0  0  0  0  0  0  0
  -15.5080  -44.1101  -21.0733 C   0  0  0  0  0  0  0  0  0  0  0  0
  -14.8852  -42.9584  -20.6188 C   0  0  0  0  0  0  0  0  0  0  0  0
  -14.2301  -42.9777  -19.3909 C   0  0  0  0  0  0  0  0  0  0  0  0
  -14.2714  -44.1397  -18.6380 C   0  0  0  0  0  0  0  0  0  0  0  0
  -14.9030  -45.2692  -19.0228 N   0  0  0  0  0  0  0  0  0  0  0  0
  -15.5195  -45.2133  -20.2269 C   0  0  0  0  0  0  0  0  0  0  0  0
  -16.6010  -42.4775  -23.9092 C   0  0  0  0  0  0  0  0  0  0  0  0
  -17.1738  -41.7597  -23.1882 O   0  0  0  0  0  0  0  0  0  0  0  0
  -16.4625  -42.4495  -25.4581 N   0  0  0  0  0  0  0  0  0  0  0  0
  -16.9176  -41.4880  -26.4132 C   0  0  0  0  0  0  0  0  0  0  0  0
  -16.1194  -40.1685  -26.4321 C   0  0  2  0  0  0  0  0  0  0  0  0
  -14.7470  -40.2346  -25.7779 C   0  0  0  0  0  0  0  0  0  0  0  0
  -13.8748  -39.3786  -26.4881 O   0  0  0  0  0  0  0  0  0  0  0  0
  -16.9801  -39.0195  -25.9560 C   0  0  0  0  0  0  0  0  0  0  0  0
  -16.9624  -38.4615  -24.6789 C   0  0  0  0  0  0  0  0  0  0  0  0
  -17.8343  -37.4205  -24.3708 C   0  0  0  0  0  0  0  0  0  0  0  0
  -18.7218  -36.9902  -25.3430 C   0  0  0  0  0  0  0  0  0  0  0  0
  -18.7903  -37.5148  -26.5862 N   0  0  0  0  0  0  0  0  0  0  0  0
  -17.9082  -38.5036  -26.8520 C   0  0  0  0  0  0  0  0  0  0  0  0
  2  1  1  1
  2  3  1  0
  3  4  1  0
  4  5  2  0
  5  6  1  0
  6  7  2  0
  7  8  1  0
  8  9  2  0
  2 10  1  0
 10 11  2  0
 10 12  1  0
 12 13  1  0
 14 13  1  1
 14 15  1  0
 15 16  1  0
 14 17  1  0
 17 18  2  0
 18 19  1  0
 19 20  2  0
 20 21  1  0
 21 22  2  0
  9  4  1  0
 22 17  1  0
M  END
>  <fragmenstein_mode>  (130) 
expansion

>  <original SMILES>  (130) 
C[C@@H](Oc1cccnc1)C(=O)NC[C@H](CO)c1cccnc1

>  <fragmenstein_outcome>  (130) 
acceptable

>  <energy_score>  (130) 
-8.154132

>  <tags>  (130) 
['Fragmenstein placed']

>  <original ID>  (130) 
NBXAYGBEQBZCQN-TZMCWYRMSA-N

>  <alias>  (130) 
None

>  <ref_mols>  (130) 
d0191a,d0472a

>  <HIPPO Pose ID>  (130) 
71583

>  <ref_pdb>  (130) 
d0472a

>  <scratch_subdir>  (130) 
/opt/xchem-fragalysis-2/maxwin/BulkDock/SCRATCH/217040/C13623-P42

>  <HIPPO Compound ID>  (130) 
13623

>  <exports>  (130) 
['/opt/xchem-fragalysis-2/maxwin/BulkDock/OUTPUTS/RdRp_knitwork_primer_grip_n_pocket_pure_split1800_batch006_217040.sdf']

>  <fragmenstein_runtime>  (130) 
4.501978

>  <fragmenstein_error>  (130) 
None

>  <distance_score>  (130) 
0.922802

>  <csv_name>  (130) 
RdRp_knitwork_primer_grip_n_pocket_pure_split1800_batch006.csv

>  <inchikey>  (130) 
NBXAYGBEQBZCQN-TZMCWYRMSA-N

>  <SLURM_JOB_NAME>  (130) 
BulkDock.place:Flavi_NS5_RdRp:RdRp_knitwork_primer_grip_n_pocket_pure_split1800_batch006

>  <SLURM_JOB_ID>  (130) 
217040

>  <name>  (130) 
NBXAYGBEQBZCQN-TZMCWYRMSA-N

$$$$
71621
     RDKit          3D

 21 23  0  0  0  0  0  0  0  0999 V2000
  -14.4036  -40.9739  -21.0613 C   0  0  0  0  0  0  0  0  0  0  0  0
  -15.2294  -42.0342  -21.8073 C   0  0  1  0  0  0  0  0  0  0  0  0
  -15.4809  -41.7435  -23.2068 N   0  0  0  0  0  0  0  0  0  0  0  0
  -15.1796  -40.5233  -23.6970 N   0  0  0  0  0  0  0  0  0  0  0  0
  -15.8881  -40.4979  -24.8334 C   0  0  0  0  0  0  0  0  0  0  0  0
  -16.5226  -39.1829  -25.3749 C   0  0  0  0  0  0  0  0  0  0  0  0
  -17.1744  -39.0281  -26.5745 C   0  0  0  0  0  0  0  0  0  0  0  0
  -17.9924  -37.9059  -26.6726 N   0  0  0  0  0  0  0  0  0  0  0  0
  -17.8323  -37.1868  -25.5792 C   0  0  0  0  0  0  0  0  0  0  0  0
  -16.7453  -37.7993  -24.4042 S   0  0  0  0  0  0  0  0  0  0  0  0
  -16.4297  -41.7072  -25.1840 N   0  0  0  0  0  0  0  0  0  0  0  0
  -16.3984  -42.3537  -24.0336 C   0  0  0  0  0  0  0  0  0  0  0  0
  -17.4256  -43.4543  -23.6374 C   0  0  0  0  0  0  0  0  0  0  0  0
  -17.7117  -44.0109  -22.3742 C   0  0  0  0  0  0  0  0  0  0  0  0
  -18.7801  -44.8560  -22.5206 C   0  0  0  0  0  0  0  0  0  0  0  0
  -19.1533  -44.8441  -23.8362 N   0  0  0  0  0  0  0  0  0  0  0  0
  -18.3255  -43.9981  -24.5195 C   0  0  0  0  0  0  0  0  0  0  0  0
  -14.6522  -43.4240  -21.5679 C   0  0  0  0  0  0  0  0  0  0  0  0
  -14.8366  -44.2569  -22.6060 F   0  0  0  0  0  0  0  0  0  0  0  0
  -13.3453  -43.3709  -21.2779 F   0  0  0  0  0  0  0  0  0  0  0  0
  -15.2525  -44.0129  -20.4963 F   0  0  0  0  0  0  0  0  0  0  0  0
  2  1  1  6
  2  3  1  0
  3  4  1  0
  4  5  2  0
  5  6  1  0
  6  7  2  0
  7  8  1  0
  8  9  2  0
  9 10  1  0
  5 11  1  0
 11 12  2  0
 12 13  1  0
 13 14  1  0
 14 15  2  0
 15 16  1  0
 16 17  1  0
  2 18  1  0
 18 19  1  0
 18 20  1  0
 18 21  1  0
 12  3  1  0
 17 13  2  0
 10  6  1  0
M  END
>  <fragmenstein_mode>  (131) 
expansion

>  <original SMILES>  (131) 
C[C@@H](n1nc(-c2cncs2)nc1-c1cc[nH]c1)C(F)(F)F

>  <fragmenstein_outcome>  (131) 
acceptable

>  <energy_score>  (131) 
-90.37667

>  <tags>  (131) 
['Fragmenstein placed']

>  <original ID>  (131) 
BNKLTCVOXDAGTQ-SSDOTTSWSA-N

>  <alias>  (131) 
None

>  <ref_mols>  (131) 
d0472a,d0615b

>  <HIPPO Pose ID>  (131) 
71621

>  <ref_pdb>  (131) 
d0615b

>  <scratch_subdir>  (131) 
/opt/xchem-fragalysis-2/maxwin/BulkDock/SCRATCH/217046/C12388-P51

>  <HIPPO Compound ID>  (131) 
12388

>  <exports>  (131) 
['/opt/xchem-fragalysis-2/maxwin/BulkDock/OUTPUTS/RdRp_knitwork_primer_grip_n_pocket_pure_split1800_batch012_217046.sdf']

>  <fragmenstein_runtime>  (131) 
13.114839

>  <fragmenstein_error>  (131) 
None

>  <distance_score>  (131) 
0.949781

>  <csv_name>  (131) 
RdRp_knitwork_primer_grip_n_pocket_pure_split1800_batch012.csv

>  <inchikey>  (131) 
BNKLTCVOXDAGTQ-SSDOTTSWSA-N

>  <SLURM_JOB_NAME>  (131) 
BulkDock.place:Flavi_NS5_RdRp:RdRp_knitwork_primer_grip_n_pocket_pure_split1800_batch012

>  <SLURM_JOB_ID>  (131) 
217046

>  <name>  (131) 
BNKLTCVOXDAGTQ-SSDOTTSWSA-N

$$$$
71899
     RDKit          3D

 21 22  0  0  0  0  0  0  0  0999 V2000
  -17.6247  -43.3875  -24.6260 C   0  0  0  0  0  0  0  0  0  0  0  0
  -16.8060  -42.4620  -25.4977 C   0  0  0  0  0  0  0  0  0  0  0  0
  -16.0830  -41.3973  -24.7348 N   0  0  0  0  0  0  0  0  0  0  0  0
  -15.6862  -40.2047  -25.5636 C   0  0  1  0  0  0  0  0  0  0  0  0
  -15.1172  -40.5751  -26.9197 C   0  0  0  0  0  0  0  0  0  0  0  0
  -16.8084  -39.1949  -25.6530 C   0  0  0  0  0  0  0  0  0  0  0  0
  -16.9276  -38.2216  -24.6593 C   0  0  0  0  0  0  0  0  0  0  0  0
  -17.8694  -37.2184  -24.8007 C   0  0  0  0  0  0  0  0  0  0  0  0
  -18.6856  -37.2424  -25.9171 C   0  0  0  0  0  0  0  0  0  0  0  0
  -18.6583  -38.1918  -26.8695 N   0  0  0  0  0  0  0  0  0  0  0  0
  -17.7063  -39.1384  -26.7180 C   0  0  0  0  0  0  0  0  0  0  0  0
  -14.9144  -41.9382  -23.6124 S   0  0  0  0  0  0  0  0  0  0  0  0
  -14.4826  -43.2411  -24.0624 O   0  0  0  0  0  0  0  0  0  0  0  0
  -13.9859  -40.8588  -23.3440 O   0  0  0  0  0  0  0  0  0  0  0  0
  -15.8946  -42.1145  -22.1178 C   0  0  0  0  0  0  0  0  0  0  0  0
  -15.2503  -43.0841  -21.1669 C   0  0  0  0  0  0  0  0  0  0  0  0
  -14.0405  -42.7949  -20.5316 C   0  0  0  0  0  0  0  0  0  0  0  0
  -13.5319  -43.6756  -19.5857 C   0  0  0  0  0  0  0  0  0  0  0  0
  -14.2626  -44.8139  -19.2976 C   0  0  0  0  0  0  0  0  0  0  0  0
  -15.4182  -45.1527  -19.9049 N   0  0  0  0  0  0  0  0  0  0  0  0
  -15.8754  -44.2853  -20.8344 C   0  0  0  0  0  0  0  0  0  0  0  0
  1  2  1  0
  2  3  1  0
  3  4  1  0
  4  5  1  6
  4  6  1  0
  6  7  2  0
  7  8  1  0
  8  9  2  0
  9 10  1  0
 10 11  2  0
  3 12  1  0
 12 13  2  0
 12 14  2  0
 12 15  1  0
 15 16  1  0
 16 17  2  0
 17 18  1  0
 18 19  2  0
 19 20  1  0
 20 21  2  0
 11  6  1  0
 21 16  1  0
M  END
>  <fragmenstein_mode>  (132) 
expansion

>  <original SMILES>  (132) 
CCN([C@@H](C)c1cccnc1)S(=O)(=O)Cc1cccnc1

>  <fragmenstein_outcome>  (132) 
acceptable

>  <energy_score>  (132) 
-43.231364

>  <tags>  (132) 
['Fragmenstein placed']

>  <original ID>  (132) 
WWDASINWQNVIKX-ZDUSSCGKSA-N

>  <alias>  (132) 
None

>  <ref_mols>  (132) 
d0191a,d0472a

>  <HIPPO Pose ID>  (132) 
71899

>  <ref_pdb>  (132) 
d0191a

>  <scratch_subdir>  (132) 
/opt/xchem-fragalysis-2/maxwin/BulkDock/SCRATCH/217040/C10370-P19

>  <HIPPO Compound ID>  (132) 
10370

>  <exports>  (132) 
['/opt/xchem-fragalysis-2/maxwin/BulkDock/OUTPUTS/RdRp_knitwork_primer_grip_n_pocket_pure_split1800_batch006_217040.sdf']

>  <fragmenstein_runtime>  (132) 
14.576916

>  <fragmenstein_error>  (132) 
None

>  <distance_score>  (132) 
0.850219

>  <csv_name>  (132) 
RdRp_knitwork_primer_grip_n_pocket_pure_split1800_batch006.csv

>  <inchikey>  (132) 
WWDASINWQNVIKX-ZDUSSCGKSA-N

>  <SLURM_JOB_NAME>  (132) 
BulkDock.place:Flavi_NS5_RdRp:RdRp_knitwork_primer_grip_n_pocket_pure_split1800_batch006

>  <SLURM_JOB_ID>  (132) 
217040

>  <name>  (132) 
WWDASINWQNVIKX-ZDUSSCGKSA-N

$$$$
71907
     RDKit          3D

 21 22  0  0  0  0  0  0  0  0999 V2000
  -17.5387  -43.0562  -25.0590 C   0  0  0  0  0  0  0  0  0  0  0  0
  -16.6272  -42.0388  -25.7089 C   0  0  0  0  0  0  0  0  0  0  0  0
  -16.0250  -41.1157  -24.7093 N   0  0  0  0  0  0  0  0  0  0  0  0
  -15.6243  -39.7723  -25.2429 C   0  0  1  0  0  0  0  0  0  0  0  0
  -14.7738  -39.8915  -26.4866 C   0  0  0  0  0  0  0  0  0  0  0  0
  -16.8094  -38.8371  -25.3771 C   0  0  0  0  0  0  0  0  0  0  0  0
  -17.2042  -38.0894  -24.2616 C   0  0  0  0  0  0  0  0  0  0  0  0
  -18.2849  -37.2223  -24.3485 C   0  0  0  0  0  0  0  0  0  0  0  0
  -18.9666  -37.1457  -25.5490 C   0  0  0  0  0  0  0  0  0  0  0  0
  -18.6333  -37.8468  -26.6564 N   0  0  0  0  0  0  0  0  0  0  0  0
  -17.5489  -38.6607  -26.5449 C   0  0  0  0  0  0  0  0  0  0  0  0
  -14.9544  -41.8178  -23.5722 S   0  0  0  0  0  0  0  0  0  0  0  0
  -14.4917  -43.0619  -24.1416 O   0  0  0  0  0  0  0  0  0  0  0  0
  -14.0489  -40.7892  -23.0994 O   0  0  0  0  0  0  0  0  0  0  0  0
  -16.0550  -42.1782  -22.2039 C   0  0  0  0  0  0  0  0  0  0  0  0
  -15.4030  -43.1039  -21.2123 C   0  0  0  0  0  0  0  0  0  0  0  0
  -14.2984  -42.7129  -20.4511 C   0  0  0  0  0  0  0  0  0  0  0  0
  -13.8215  -43.5464  -19.4473 C   0  0  0  0  0  0  0  0  0  0  0  0
  -14.4806  -44.7422  -19.2283 C   0  0  0  0  0  0  0  0  0  0  0  0
  -15.5168  -45.1868  -19.9682 N   0  0  0  0  0  0  0  0  0  0  0  0
  -15.9445  -44.3617  -20.9494 C   0  0  0  0  0  0  0  0  0  0  0  0
  1  2  1  0
  2  3  1  0
  3  4  1  0
  4  5  1  6
  4  6  1  0
  6  7  2  0
  7  8  1  0
  8  9  2  0
  9 10  1  0
 10 11  2  0
  3 12  1  0
 12 13  2  0
 12 14  2  0
 12 15  1  0
 15 16  1  0
 16 17  2  0
 17 18  1  0
 18 19  2  0
 19 20  1  0
 20 21  2  0
 11  6  1  0
 21 16  1  0
M  END
>  <fragmenstein_mode>  (133) 
expansion

>  <original SMILES>  (133) 
CCN([C@@H](C)c1cccnc1)S(=O)(=O)Cc1cccnc1

>  <fragmenstein_outcome>  (133) 
acceptable

>  <energy_score>  (133) 
-51.07349

>  <tags>  (133) 
['Fragmenstein placed']

>  <original ID>  (133) 
WWDASINWQNVIKX-ZDUSSCGKSA-N

>  <alias>  (133) 
None

>  <ref_mols>  (133) 
d0191a,d0472a

>  <HIPPO Pose ID>  (133) 
71907

>  <ref_pdb>  (133) 
d0472a

>  <scratch_subdir>  (133) 
/opt/xchem-fragalysis-2/maxwin/BulkDock/SCRATCH/217040/C10370-P42

>  <HIPPO Compound ID>  (133) 
10370

>  <exports>  (133) 
['/opt/xchem-fragalysis-2/maxwin/BulkDock/OUTPUTS/RdRp_knitwork_primer_grip_n_pocket_pure_split1800_batch006_217040.sdf']

>  <fragmenstein_runtime>  (133) 
14.084052

>  <fragmenstein_error>  (133) 
None

>  <distance_score>  (133) 
0.894504

>  <csv_name>  (133) 
RdRp_knitwork_primer_grip_n_pocket_pure_split1800_batch006.csv

>  <inchikey>  (133) 
WWDASINWQNVIKX-ZDUSSCGKSA-N

>  <SLURM_JOB_NAME>  (133) 
BulkDock.place:Flavi_NS5_RdRp:RdRp_knitwork_primer_grip_n_pocket_pure_split1800_batch006

>  <SLURM_JOB_ID>  (133) 
217040

>  <name>  (133) 
WWDASINWQNVIKX-ZDUSSCGKSA-N

$$$$
72154
     RDKit          3D

 20 21  0  0  0  0  0  0  0  0999 V2000
  -15.8613  -44.8899  -21.2869 C   0  0  0  0  0  0  0  0  0  0  0  0
  -15.3439  -43.4468  -21.1004 C   0  0  0  0  0  0  0  0  0  0  0  0
  -14.2311  -43.4861  -20.0437 C   0  0  0  0  0  0  0  0  0  0  0  0
  -16.5098  -42.6050  -20.5565 C   0  0  0  0  0  0  0  0  0  0  0  0
  -14.7948  -42.9353  -22.4709 C   0  0  0  0  0  0  0  0  0  0  0  0
  -14.8943  -41.4236  -22.8098 C   0  0  2  0  0  0  0  0  0  0  0  0
  -14.7171  -41.2695  -24.2615 N   0  0  0  0  0  0  0  0  0  0  0  0
  -15.7522  -41.2095  -25.1834 C   0  0  0  0  0  0  0  0  0  0  0  0
  -15.4863  -40.6471  -26.4359 C   0  0  0  0  0  0  0  0  0  0  0  0
  -16.4670  -40.6448  -27.4204 C   0  0  0  0  0  0  0  0  0  0  0  0
  -17.7106  -41.1417  -27.2513 N   0  0  0  0  0  0  0  0  0  0  0  0
  -17.9598  -41.6681  -26.0301 C   0  0  0  0  0  0  0  0  0  0  0  0
  -17.0367  -41.7229  -24.9941 C   0  0  0  0  0  0  0  0  0  0  0  0
  -17.4094  -42.2866  -23.8356 F   0  0  0  0  0  0  0  0  0  0  0  0
  -13.9226  -40.4412  -22.1808 C   0  0  0  0  0  0  0  0  0  0  0  0
  -14.1210  -39.0695  -22.4144 C   0  0  0  0  0  0  0  0  0  0  0  0
  -13.1982  -38.1336  -21.9719 C   0  0  0  0  0  0  0  0  0  0  0  0
  -12.0877  -38.5885  -21.2883 C   0  0  0  0  0  0  0  0  0  0  0  0
  -11.8528  -39.8918  -21.0398 N   0  0  0  0  0  0  0  0  0  0  0  0
  -12.7747  -40.7830  -21.4828 C   0  0  0  0  0  0  0  0  0  0  0  0
  1  2  1  0
  2  3  1  0
  2  4  1  0
  2  5  1  0
  6  5  1  1
  6  7  1  0
  7  8  1  0
  8  9  2  0
  9 10  1  0
 10 11  2  0
 11 12  1  0
 12 13  2  0
 13 14  1  0
  6 15  1  0
 15 16  2  0
 16 17  1  0
 17 18  2  0
 18 19  1  0
 19 20  2  0
 13  8  1  0
 20 15  1  0
M  END
>  <fragmenstein_mode>  (134) 
expansion

>  <original SMILES>  (134) 
CC(C)(C)C[C@H](Nc1ccncc1F)c1cccnc1

>  <fragmenstein_outcome>  (134) 
acceptable

>  <energy_score>  (134) 
-228.477626

>  <tags>  (134) 
['Fragmenstein placed']

>  <original ID>  (134) 
NBCUSURROPPKNC-HNNXBMFYSA-N

>  <alias>  (134) 
None

>  <ref_mols>  (134) 
d0160a,d0472a

>  <HIPPO Pose ID>  (134) 
72154

>  <ref_pdb>  (134) 
d0160a

>  <scratch_subdir>  (134) 
/opt/xchem-fragalysis-2/maxwin/BulkDock/SCRATCH/217043/C10616-P12

>  <HIPPO Compound ID>  (134) 
10616

>  <exports>  (134) 
['/opt/xchem-fragalysis-2/maxwin/BulkDock/OUTPUTS/RdRp_knitwork_primer_grip_n_pocket_pure_split1800_batch009_217043.sdf']

>  <fragmenstein_runtime>  (134) 
25.298067

>  <fragmenstein_error>  (134) 
None

>  <distance_score>  (134) 
0.995134

>  <csv_name>  (134) 
RdRp_knitwork_primer_grip_n_pocket_pure_split1800_batch009.csv

>  <inchikey>  (134) 
NBCUSURROPPKNC-HNNXBMFYSA-N

>  <SLURM_JOB_NAME>  (134) 
BulkDock.place:Flavi_NS5_RdRp:RdRp_knitwork_primer_grip_n_pocket_pure_split1800_batch009

>  <SLURM_JOB_ID>  (134) 
217043

>  <name>  (134) 
NBCUSURROPPKNC-HNNXBMFYSA-N

$$$$
72166
     RDKit          3D

 20 21  0  0  0  0  0  0  0  0999 V2000
  -15.8327  -44.8824  -21.2784 C   0  0  0  0  0  0  0  0  0  0  0  0
  -15.3368  -43.4320  -21.0979 C   0  0  0  0  0  0  0  0  0  0  0  0
  -14.2402  -43.4505  -20.0239 C   0  0  0  0  0  0  0  0  0  0  0  0
  -16.5210  -42.5990  -20.5814 C   0  0  0  0  0  0  0  0  0  0  0  0
  -14.7706  -42.9266  -22.4633 C   0  0  0  0  0  0  0  0  0  0  0  0
  -14.8810  -41.4187  -22.8153 C   0  0  2  0  0  0  0  0  0  0  0  0
  -14.6688  -41.2750  -24.2666 N   0  0  0  0  0  0  0  0  0  0  0  0
  -15.7091  -41.1687  -25.1849 C   0  0  0  0  0  0  0  0  0  0  0  0
  -15.4500  -40.5400  -26.4081 C   0  0  0  0  0  0  0  0  0  0  0  0
  -16.4353  -40.4927  -27.3866 C   0  0  0  0  0  0  0  0  0  0  0  0
  -17.6692  -41.0203  -27.2420 N   0  0  0  0  0  0  0  0  0  0  0  0
  -17.9090  -41.6172  -26.0512 C   0  0  0  0  0  0  0  0  0  0  0  0
  -16.9835  -41.7161  -25.0227 C   0  0  0  0  0  0  0  0  0  0  0  0
  -17.3427  -42.3525  -23.8986 F   0  0  0  0  0  0  0  0  0  0  0  0
  -13.9362  -40.4218  -22.1668 C   0  0  0  0  0  0  0  0  0  0  0  0
  -14.1558  -39.0534  -22.3980 C   0  0  0  0  0  0  0  0  0  0  0  0
  -13.2556  -38.1035  -21.9397 C   0  0  0  0  0  0  0  0  0  0  0  0
  -12.1455  -38.5417  -21.2441 C   0  0  0  0  0  0  0  0  0  0  0  0
  -11.8886  -39.8417  -21.0000 N   0  0  0  0  0  0  0  0  0  0  0  0
  -12.7903  -40.7465  -21.4561 C   0  0  0  0  0  0  0  0  0  0  0  0
  1  2  1  0
  2  3  1  0
  2  4  1  0
  2  5  1  0
  6  5  1  1
  6  7  1  0
  7  8  1  0
  8  9  2  0
  9 10  1  0
 10 11  2  0
 11 12  1  0
 12 13  2  0
 13 14  1  0
  6 15  1  0
 15 16  2  0
 16 17  1  0
 17 18  2  0
 18 19  1  0
 19 20  2  0
 13  8  1  0
 20 15  1  0
M  END
>  <fragmenstein_mode>  (135) 
expansion

>  <original SMILES>  (135) 
CC(C)(C)C[C@H](Nc1ccncc1F)c1cccnc1

>  <fragmenstein_outcome>  (135) 
acceptable

>  <energy_score>  (135) 
-228.727961

>  <tags>  (135) 
['Fragmenstein placed']

>  <original ID>  (135) 
NBCUSURROPPKNC-HNNXBMFYSA-N

>  <alias>  (135) 
None

>  <ref_mols>  (135) 
d0160a,d0472a

>  <HIPPO Pose ID>  (135) 
72166

>  <ref_pdb>  (135) 
d0472a

>  <scratch_subdir>  (135) 
/opt/xchem-fragalysis-2/maxwin/BulkDock/SCRATCH/217043/C10616-P42

>  <HIPPO Compound ID>  (135) 
10616

>  <exports>  (135) 
['/opt/xchem-fragalysis-2/maxwin/BulkDock/OUTPUTS/RdRp_knitwork_primer_grip_n_pocket_pure_split1800_batch009_217043.sdf']

>  <fragmenstein_runtime>  (135) 
25.801607

>  <fragmenstein_error>  (135) 
None

>  <distance_score>  (135) 
0.996581

>  <csv_name>  (135) 
RdRp_knitwork_primer_grip_n_pocket_pure_split1800_batch009.csv

>  <inchikey>  (135) 
NBCUSURROPPKNC-HNNXBMFYSA-N

>  <SLURM_JOB_NAME>  (135) 
BulkDock.place:Flavi_NS5_RdRp:RdRp_knitwork_primer_grip_n_pocket_pure_split1800_batch009

>  <SLURM_JOB_ID>  (135) 
217043

>  <name>  (135) 
NBCUSURROPPKNC-HNNXBMFYSA-N

$$$$
72491
     RDKit          3D

 20 22  0  0  0  0  0  0  0  0999 V2000
  -16.1897  -41.0062  -27.1030 C   0  0  0  0  0  0  0  0  0  0  0  0
  -15.8235  -40.0293  -25.9817 C   0  0  2  0  0  0  0  0  0  0  0  0
  -15.1769  -40.6864  -24.8332 N   0  0  0  0  0  0  0  0  0  0  0  0
  -15.7626  -41.7437  -24.1480 C   0  0  0  0  0  0  0  0  0  0  0  0
  -15.1292  -42.2497  -23.0058 C   0  0  0  0  0  0  0  0  0  0  0  0
  -15.5669  -43.3132  -22.2824 N   0  0  0  0  0  0  0  0  0  0  0  0
  -16.6960  -43.8957  -22.7412 C   0  0  0  0  0  0  0  0  0  0  0  0
  -17.1379  -45.0973  -22.1142 N   0  0  0  0  0  0  0  0  0  0  0  0
  -16.5426  -45.7055  -21.0202 C   0  0  0  0  0  0  0  0  0  0  0  0
  -17.2105  -46.8736  -20.7319 C   0  0  0  0  0  0  0  0  0  0  0  0
  -18.2397  -47.0023  -21.6825 C   0  0  0  0  0  0  0  0  0  0  0  0
  -18.1938  -45.8951  -22.4984 C   0  0  0  0  0  0  0  0  0  0  0  0
  -17.3726  -43.3634  -23.8352 C   0  0  0  0  0  0  0  0  0  0  0  0
  -16.9290  -42.2880  -24.5449 N   0  0  0  0  0  0  0  0  0  0  0  0
  -16.9336  -39.0579  -25.5705 C   0  0  0  0  0  0  0  0  0  0  0  0
  -18.2086  -39.1023  -26.1390 C   0  0  0  0  0  0  0  0  0  0  0  0
  -19.1580  -38.1493  -25.7757 C   0  0  0  0  0  0  0  0  0  0  0  0
  -18.8186  -37.1565  -24.8709 C   0  0  0  0  0  0  0  0  0  0  0  0
  -17.5434  -37.1686  -24.3467 C   0  0  0  0  0  0  0  0  0  0  0  0
  -16.6059  -38.0860  -24.6735 N   0  0  0  0  0  0  0  0  0  0  0  0
  2  1  1  6
  2  3  1  0
  3  4  1  0
  4  5  2  0
  5  6  1  0
  6  7  2  0
  7  8  1  0
  8  9  1  0
  9 10  2  0
 10 11  1  0
 11 12  2  0
  7 13  1  0
 13 14  2  0
  2 15  1  0
 15 16  2  0
 16 17  1  0
 17 18  2  0
 18 19  1  0
 19 20  2  0
 14  4  1  0
 20 15  1  0
 12  8  1  0
M  END
>  <fragmenstein_mode>  (136) 
expansion

>  <original SMILES>  (136) 
C[C@H](Nc1cnc(-n2cccc2)cn1)c1ccccn1

>  <fragmenstein_outcome>  (136) 
acceptable

>  <energy_score>  (136) 
-22.235902

>  <tags>  (136) 
['Fragmenstein placed']

>  <original ID>  (136) 
VTQCVTAGCLFPPX-LBPRGKRZSA-N

>  <alias>  (136) 
None

>  <ref_mols>  (136) 
d0472a,d0615b

>  <HIPPO Pose ID>  (136) 
72491

>  <ref_pdb>  (136) 
d0472a

>  <scratch_subdir>  (136) 
/opt/xchem-fragalysis-2/maxwin/BulkDock/SCRATCH/217047/C11480-P42

>  <HIPPO Compound ID>  (136) 
11480

>  <exports>  (136) 
['/opt/xchem-fragalysis-2/maxwin/BulkDock/OUTPUTS/RdRp_knitwork_primer_grip_n_pocket_pure_split1800_batch013_217047.sdf']

>  <fragmenstein_runtime>  (136) 
2.062602

>  <fragmenstein_error>  (136) 
None

>  <distance_score>  (136) 
0.975275

>  <csv_name>  (136) 
RdRp_knitwork_primer_grip_n_pocket_pure_split1800_batch013.csv

>  <inchikey>  (136) 
VTQCVTAGCLFPPX-LBPRGKRZSA-N

>  <SLURM_JOB_NAME>  (136) 
BulkDock.place:Flavi_NS5_RdRp:RdRp_knitwork_primer_grip_n_pocket_pure_split1800_batch013

>  <SLURM_JOB_ID>  (136) 
217047

>  <name>  (136) 
VTQCVTAGCLFPPX-LBPRGKRZSA-N

$$$$
72746
     RDKit          3D

 22 23  0  0  0  0  0  0  0  0999 V2000
  -17.3818  -44.8147  -22.9617 C   0  0  0  0  0  0  0  0  0  0  0  0
  -15.9952  -44.8403  -23.3262 O   0  0  0  0  0  0  0  0  0  0  0  0
  -15.4648  -43.9755  -24.2275 C   0  0  0  0  0  0  0  0  0  0  0  0
  -14.2738  -43.6758  -24.1885 O   0  0  0  0  0  0  0  0  0  0  0  0
  -16.3647  -43.4660  -25.3274 C   0  0  0  0  0  0  0  0  0  0  0  0
  -16.8289  -42.0281  -25.2053 C   0  0  0  0  0  0  0  0  0  0  0  0
  -15.7667  -41.0983  -24.7587 N   0  0  0  0  0  0  0  0  0  0  0  0
  -15.4549  -39.9871  -25.6993 C   0  0  0  0  0  0  0  0  0  0  0  0
  -16.5618  -38.9832  -25.8841 C   0  0  0  0  0  0  0  0  0  0  0  0
  -16.7498  -37.9361  -24.9846 C   0  0  0  0  0  0  0  0  0  0  0  0
  -17.8650  -37.1201  -25.0761 C   0  0  0  0  0  0  0  0  0  0  0  0
  -18.7561  -37.3570  -26.0983 C   0  0  0  0  0  0  0  0  0  0  0  0
  -18.5888  -38.3053  -27.0404 N   0  0  0  0  0  0  0  0  0  0  0  0
  -17.4856  -39.0861  -26.9168 C   0  0  0  0  0  0  0  0  0  0  0  0
  -15.7116  -40.8424  -23.0788 S   0  0  0  0  0  0  0  0  0  0  0  0
  -16.1092  -42.0936  -22.4684 O   0  0  0  0  0  0  0  0  0  0  0  0
  -16.4904  -39.6690  -22.7631 O   0  0  0  0  0  0  0  0  0  0  0  0
  -13.9799  -40.5668  -22.7337 C   0  0  2  0  0  0  0  0  0  0  0  0
  -13.5238  -41.2244  -21.4482 C   0  0  0  0  0  0  0  0  0  0  0  0
  -13.8864  -40.1862  -20.4115 C   0  0  0  0  0  0  0  0  0  0  0  0
  -13.6714  -38.9151  -21.0408 O   0  0  0  0  0  0  0  0  0  0  0  0
  -13.6616  -39.1146  -22.4635 C   0  0  0  0  0  0  0  0  0  0  0  0
  1  2  1  0
  2  3  1  0
  3  4  2  0
  3  5  1  0
  5  6  1  0
  6  7  1  0
  7  8  1  0
  8  9  1  0
  9 10  2  0
 10 11  1  0
 11 12  2  0
 12 13  1  0
 13 14  2  0
  7 15  1  0
 15 16  2  0
 15 17  2  0
 18 15  1  1
 18 19  1  0
 19 20  1  0
 20 21  1  0
 21 22  1  0
 14  9  1  0
 22 18  1  0
M  END
>  <fragmenstein_mode>  (137) 
expansion

>  <original SMILES>  (137) 
COC(=O)CCN(Cc1cccnc1)S(=O)(=O)[C@@H]1CCOC1

>  <fragmenstein_outcome>  (137) 
acceptable

>  <energy_score>  (137) 
-39.252512

>  <tags>  (137) 
['Fragmenstein placed']

>  <original ID>  (137) 
NMMXOIPTLDWKIW-CYBMUJFWSA-N

>  <alias>  (137) 
None

>  <ref_mols>  (137) 
d0191a,d0254a

>  <HIPPO Pose ID>  (137) 
72746

>  <ref_pdb>  (137) 
d0191a

>  <scratch_subdir>  (137) 
/opt/xchem-fragalysis-2/maxwin/BulkDock/SCRATCH/217035/C10412-P19

>  <HIPPO Compound ID>  (137) 
10412

>  <exports>  (137) 
['/opt/xchem-fragalysis-2/maxwin/BulkDock/OUTPUTS/RdRp_knitwork_primer_grip_n_pocket_pure_split1800_batch001_217035.sdf']

>  <fragmenstein_runtime>  (137) 
9.805182

>  <fragmenstein_error>  (137) 
None

>  <distance_score>  (137) 
0.944481

>  <csv_name>  (137) 
RdRp_knitwork_primer_grip_n_pocket_pure_split1800_batch001.csv

>  <inchikey>  (137) 
NMMXOIPTLDWKIW-CYBMUJFWSA-N

>  <SLURM_JOB_NAME>  (137) 
BulkDock.place:Flavi_NS5_RdRp:RdRp_knitwork_primer_grip_n_pocket_pure_split1800_batch001

>  <SLURM_JOB_ID>  (137) 
217035

>  <name>  (137) 
NMMXOIPTLDWKIW-CYBMUJFWSA-N

$$$$
72767
     RDKit          3D

 22 24  0  0  0  0  0  0  0  0999 V2000
  -13.7533  -44.2914  -18.8489 C   0  0  0  0  0  0  0  0  0  0  0  0
  -15.0292  -44.9706  -19.3347 C   0  0  0  0  0  0  0  0  0  0  0  0
  -15.4762  -44.4800  -20.7356 C   0  0  2  0  0  0  0  0  0  0  0  0
  -15.5773  -42.9430  -20.6451 C   0  0  0  0  0  0  0  0  0  0  0  0
  -15.9912  -42.4118  -19.6862 O   0  0  0  0  0  0  0  0  0  0  0  0
  -14.9590  -42.3431  -21.9446 N   0  0  0  0  0  0  0  0  0  0  0  0
  -14.6554  -41.0523  -22.2670 C   0  0  0  0  0  0  0  0  0  0  0  0
  -14.1755  -40.1560  -21.3464 C   0  0  0  0  0  0  0  0  0  0  0  0
  -13.8152  -39.0563  -22.0527 N   0  0  0  0  0  0  0  0  0  0  0  0
  -14.0756  -39.1451  -23.3631 N   0  0  0  0  0  0  0  0  0  0  0  0
  -14.6587  -40.3576  -23.5115 C   0  0  0  0  0  0  0  0  0  0  0  0
  -15.3692  -40.7418  -24.7420 C   0  0  0  0  0  0  0  0  0  0  0  0
  -15.3871  -39.8828  -25.8389 C   0  0  0  0  0  0  0  0  0  0  0  0
  -16.3859  -40.0377  -26.7917 C   0  0  0  0  0  0  0  0  0  0  0  0
  -17.3303  -41.0364  -26.6117 C   0  0  0  0  0  0  0  0  0  0  0  0
  -17.1724  -41.9251  -25.5647 C   0  0  0  0  0  0  0  0  0  0  0  0
  -16.2066  -41.8123  -24.6334 N   0  0  0  0  0  0  0  0  0  0  0  0
  -16.6726  -45.1559  -21.2292 N   0  0  0  0  0  0  0  0  0  0  0  0
  -17.3174  -44.8825  -22.4053 C   0  0  0  0  0  0  0  0  0  0  0  0
  -18.1941  -45.9249  -22.5907 C   0  0  0  0  0  0  0  0  0  0  0  0
  -18.0997  -46.8267  -21.5699 N   0  0  0  0  0  0  0  0  0  0  0  0
  -17.2095  -46.3229  -20.7484 C   0  0  0  0  0  0  0  0  0  0  0  0
  1  2  1  0
  3  2  1  1
  3  4  1  0
  4  5  2  0
  4  6  1  0
  6  7  1  0
  7  8  2  0
  8  9  1  0
  9 10  1  0
 10 11  2  0
 11 12  1  0
 12 13  2  0
 13 14  1  0
 14 15  2  0
 15 16  1  0
 16 17  2  0
  3 18  1  0
 18 19  1  0
 19 20  2  0
 20 21  1  0
 21 22  2  0
 11  7  1  0
 17 12  1  0
 22 18  1  0
M  END
>  <fragmenstein_mode>  (138) 
expansion

>  <original SMILES>  (138) 
CC[C@H](C(=O)Nc1c[nH]nc1-c1ccccn1)n1ccnc1

>  <fragmenstein_outcome>  (138) 
acceptable

>  <energy_score>  (138) 
-47.543819

>  <tags>  (138) 
['Fragmenstein placed']

>  <original ID>  (138) 
VMANCSUAJCYMRU-CYBMUJFWSA-N

>  <alias>  (138) 
None

>  <ref_mols>  (138) 
d0160a,d0472a

>  <HIPPO Pose ID>  (138) 
72767

>  <ref_pdb>  (138) 
d0472a

>  <scratch_subdir>  (138) 
/opt/xchem-fragalysis-2/maxwin/BulkDock/SCRATCH/217043/C19953-P42

>  <HIPPO Compound ID>  (138) 
19953

>  <exports>  (138) 
['/opt/xchem-fragalysis-2/maxwin/BulkDock/OUTPUTS/RdRp_knitwork_primer_grip_n_pocket_pure_split1800_batch009_217043.sdf']

>  <fragmenstein_runtime>  (138) 
5.427521

>  <fragmenstein_error>  (138) 
None

>  <distance_score>  (138) 
0.951052

>  <csv_name>  (138) 
RdRp_knitwork_primer_grip_n_pocket_pure_split1800_batch009.csv

>  <inchikey>  (138) 
VMANCSUAJCYMRU-CYBMUJFWSA-N

>  <SLURM_JOB_NAME>  (138) 
BulkDock.place:Flavi_NS5_RdRp:RdRp_knitwork_primer_grip_n_pocket_pure_split1800_batch009

>  <SLURM_JOB_ID>  (138) 
217043

>  <name>  (138) 
VMANCSUAJCYMRU-CYBMUJFWSA-N

$$$$
72914
     RDKit          3D

 23 24  0  0  0  0  0  0  0  0999 V2000
  -17.6008  -42.3284  -26.4108 O   0  0  0  0  0  0  0  0  0  0  0  0
  -16.8121  -42.2679  -25.4766 C   0  0  0  0  0  0  0  0  0  0  0  0
  -16.5644  -43.3899  -24.5080 C   0  0  0  0  0  0  0  0  0  0  0  0
  -16.5441  -42.9278  -23.0657 C   0  0  0  0  0  0  0  0  0  0  0  0
  -15.9448  -43.9443  -22.1205 C   0  0  0  0  0  0  0  0  0  0  0  0
  -14.8492  -43.7190  -21.6064 O   0  0  0  0  0  0  0  0  0  0  0  0
  -16.6898  -45.1364  -21.7650 C   0  0  0  0  0  0  0  0  0  0  0  0
  -17.8632  -45.7034  -22.2281 C   0  0  0  0  0  0  0  0  0  0  0  0
  -18.0746  -46.9060  -21.5083 C   0  0  0  0  0  0  0  0  0  0  0  0
  -17.0621  -47.0214  -20.5860 C   0  0  0  0  0  0  0  0  0  0  0  0
  -16.2287  -45.9554  -20.7548 N   0  0  0  0  0  0  0  0  0  0  0  0
  -16.0155  -41.2115  -25.2035 O   0  0  0  0  0  0  0  0  0  0  0  0
  -16.0780  -40.1284  -26.1446 C   0  0  1  0  0  0  0  0  0  0  0  0
  -17.1802  -39.1628  -25.7836 C   0  0  0  0  0  0  0  0  0  0  0  0
  -17.2438  -38.5122  -24.5481 C   0  0  0  0  0  0  0  0  0  0  0  0
  -18.1839  -37.5080  -24.3532 C   0  0  0  0  0  0  0  0  0  0  0  0
  -19.0412  -37.1988  -25.3967 C   0  0  0  0  0  0  0  0  0  0  0  0
  -19.0212  -37.8132  -26.6025 N   0  0  0  0  0  0  0  0  0  0  0  0
  -18.0893  -38.7813  -26.7606 C   0  0  0  0  0  0  0  0  0  0  0  0
  -14.7605  -39.3696  -26.1407 C   0  0  0  0  0  0  0  0  0  0  0  0
  -14.3156  -39.1697  -24.8763 F   0  0  0  0  0  0  0  0  0  0  0  0
  -13.8178  -40.0471  -26.8239 F   0  0  0  0  0  0  0  0  0  0  0  0
  -14.9266  -38.1734  -26.7459 F   0  0  0  0  0  0  0  0  0  0  0  0
  1  2  2  0
  2  3  1  0
  3  4  1  0
  4  5  1  0
  5  6  2  0
  5  7  1  0
  7  8  2  0
  8  9  1  0
  9 10  2  0
 10 11  1  0
  2 12  1  0
 13 12  1  1
 13 14  1  0
 14 15  2  0
 15 16  1  0
 16 17  2  0
 17 18  1  0
 18 19  2  0
 13 20  1  0
 20 21  1  0
 20 22  1  0
 20 23  1  0
 11  7  1  0
 19 14  1  0
M  END
>  <fragmenstein_mode>  (139) 
expansion

>  <original SMILES>  (139) 
O=C(CCC(=O)c1ccc[nH]1)O[C@@H](c1cccnc1)C(F)(F)F

>  <fragmenstein_outcome>  (139) 
acceptable

>  <energy_score>  (139) 
-43.309367

>  <tags>  (139) 
['Fragmenstein placed']

>  <original ID>  (139) 
DYUYMACNAFSKCY-AWEZNQCLSA-N

>  <alias>  (139) 
None

>  <ref_mols>  (139) 
d0191a,d0472a

>  <HIPPO Pose ID>  (139) 
72914

>  <ref_pdb>  (139) 
d0472a

>  <scratch_subdir>  (139) 
/opt/xchem-fragalysis-2/maxwin/BulkDock/SCRATCH/217040/C13403-P42

>  <HIPPO Compound ID>  (139) 
13403

>  <exports>  (139) 
['/opt/xchem-fragalysis-2/maxwin/BulkDock/OUTPUTS/RdRp_knitwork_primer_grip_n_pocket_pure_split1800_batch006_217040.sdf']

>  <fragmenstein_runtime>  (139) 
3.536513

>  <fragmenstein_error>  (139) 
None

>  <distance_score>  (139) 
0.912804

>  <csv_name>  (139) 
RdRp_knitwork_primer_grip_n_pocket_pure_split1800_batch006.csv

>  <inchikey>  (139) 
DYUYMACNAFSKCY-AWEZNQCLSA-N

>  <SLURM_JOB_NAME>  (139) 
BulkDock.place:Flavi_NS5_RdRp:RdRp_knitwork_primer_grip_n_pocket_pure_split1800_batch006

>  <SLURM_JOB_ID>  (139) 
217040

>  <name>  (139) 
DYUYMACNAFSKCY-AWEZNQCLSA-N

$$$$
72931
     RDKit          3D

 22 23  0  0  0  0  0  0  0  0999 V2000
  -15.5654  -40.1786  -21.8526 C   0  0  0  0  0  0  0  0  0  0  0  0
  -14.5844  -40.9422  -22.7285 C   0  0  0  0  0  0  0  0  0  0  0  0
  -14.7933  -42.4585  -22.7276 C   0  0  0  0  0  0  0  0  0  0  0  0
  -16.1661  -42.8953  -23.0853 N   0  0  0  0  0  0  0  0  0  0  0  0
  -16.1993  -43.5256  -24.4293 C   0  0  0  0  0  0  0  0  0  0  0  0
  -15.6723  -42.7095  -25.5996 C   0  0  0  0  0  0  0  0  0  0  0  0
  -16.2496  -41.4149  -25.7159 N   0  0  0  0  0  0  0  0  0  0  0  0
  -15.6152  -40.0762  -26.0750 C   0  0  0  0  0  0  0  0  0  0  0  0
  -14.5069  -39.7958  -26.2598 O   0  0  0  0  0  0  0  0  0  0  0  0
  -16.6432  -39.0413  -26.0690 C   0  0  0  0  0  0  0  0  0  0  0  0
  -16.7403  -38.1667  -24.9930 C   0  0  0  0  0  0  0  0  0  0  0  0
  -17.8001  -37.2762  -24.9641 C   0  0  0  0  0  0  0  0  0  0  0  0
  -18.7083  -37.3184  -26.0103 C   0  0  0  0  0  0  0  0  0  0  0  0
  -18.6437  -38.1663  -27.0607 N   0  0  0  0  0  0  0  0  0  0  0  0
  -17.5844  -39.0064  -27.0780 C   0  0  0  0  0  0  0  0  0  0  0  0
  -16.6258  -43.9290  -22.1233 C   0  0  0  0  0  0  0  0  0  0  0  0
  -17.1316  -43.3529  -20.7895 C   0  0  0  0  0  0  0  0  0  0  0  0
  -17.4874  -44.3916  -19.6945 C   0  0  1  0  0  0  0  0  0  0  0  0
  -18.3680  -45.5293  -20.1703 C   0  0  0  0  0  0  0  0  0  0  0  0
  -17.3814  -46.5898  -20.6271 C   0  0  0  0  0  0  0  0  0  0  0  0
  -16.0928  -46.2427  -20.1018 O   0  0  0  0  0  0  0  0  0  0  0  0
  -16.2650  -45.1463  -19.2013 C   0  0  0  0  0  0  0  0  0  0  0  0
  1  2  1  0
  2  3  1  0
  3  4  1  0
  4  5  1  0
  5  6  1  0
  6  7  1  0
  7  8  1  0
  8  9  2  0
  8 10  1  0
 10 11  2  0
 11 12  1  0
 12 13  2  0
 13 14  1  0
 14 15  2  0
  4 16  1  0
 16 17  1  0
 18 17  1  6
 18 19  1  0
 19 20  1  0
 20 21  1  0
 21 22  1  0
 15 10  1  0
 22 18  1  0
M  END
>  <fragmenstein_mode>  (140) 
expansion

>  <original SMILES>  (140) 
CCCN(CCNC(=O)c1cccnc1)CC[C@H]1CCOC1

>  <fragmenstein_outcome>  (140) 
acceptable

>  <energy_score>  (140) 
-31.221101

>  <tags>  (140) 
['Fragmenstein placed']

>  <original ID>  (140) 
RAOJLVVTLKMWSI-HNNXBMFYSA-N

>  <alias>  (140) 
None

>  <ref_mols>  (140) 
d0191a,d0254a

>  <HIPPO Pose ID>  (140) 
72931

>  <ref_pdb>  (140) 
d0191a

>  <scratch_subdir>  (140) 
/opt/xchem-fragalysis-2/maxwin/BulkDock/SCRATCH/217035/C16235-P19

>  <HIPPO Compound ID>  (140) 
16235

>  <exports>  (140) 
['/opt/xchem-fragalysis-2/maxwin/BulkDock/OUTPUTS/RdRp_knitwork_primer_grip_n_pocket_pure_split1800_batch001_217035.sdf']

>  <fragmenstein_runtime>  (140) 
7.81578

>  <fragmenstein_error>  (140) 
None

>  <distance_score>  (140) 
0.941997

>  <csv_name>  (140) 
RdRp_knitwork_primer_grip_n_pocket_pure_split1800_batch001.csv

>  <inchikey>  (140) 
RAOJLVVTLKMWSI-HNNXBMFYSA-N

>  <SLURM_JOB_NAME>  (140) 
BulkDock.place:Flavi_NS5_RdRp:RdRp_knitwork_primer_grip_n_pocket_pure_split1800_batch001

>  <SLURM_JOB_ID>  (140) 
217035

>  <name>  (140) 
RAOJLVVTLKMWSI-HNNXBMFYSA-N

$$$$
72937
     RDKit          3D

 24 26  0  0  0  0  0  0  0  0999 V2000
  -20.5322  -42.9279  -17.4140 C   0  0  0  0  0  0  0  0  0  0  0  0
  -20.8963  -44.2574  -18.0889 C   0  0  2  0  0  0  0  0  0  0  0  0
  -21.1094  -45.2623  -17.0436 N   0  0  0  0  0  0  0  0  0  0  0  0
  -21.8541  -46.4167  -17.5215 C   0  0  0  0  0  0  0  0  0  0  0  0
  -22.5072  -47.1864  -16.3788 C   0  0  0  0  0  0  0  0  0  0  0  0
  -23.5033  -46.3528  -15.5797 C   0  0  0  0  0  0  0  0  0  0  0  0
  -24.5010  -45.7037  -16.3963 N   0  0  0  0  0  0  0  0  0  0  0  0
  -24.5767  -44.2496  -16.9271 C   0  0  0  0  0  0  0  0  0  0  0  0
  -23.8820  -43.3301  -16.7218 O   0  0  0  0  0  0  0  0  0  0  0  0
  -25.8479  -44.1121  -17.8278 C   0  0  0  0  0  0  0  0  0  0  0  0
  -25.6059  -43.7560  -19.3140 C   0  0  0  0  0  0  0  0  0  0  0  0
  -26.8620  -42.8693  -19.2533 C   0  0  0  0  0  0  0  0  0  0  0  0
  -26.6480  -42.7811  -17.7337 C   0  0  0  0  0  0  0  0  0  0  0  0
  -19.8253  -44.6341  -19.0736 C   0  0  0  0  0  0  0  0  0  0  0  0
  -19.8157  -44.4849  -20.4460 C   0  0  0  0  0  0  0  0  0  0  0  0
  -18.5932  -44.6764  -21.0641 N   0  0  0  0  0  0  0  0  0  0  0  0
  -17.6693  -44.9103  -20.1459 C   0  0  0  0  0  0  0  0  0  0  0  0
  -16.2159  -44.7022  -20.3324 C   0  0  0  0  0  0  0  0  0  0  0  0
  -15.7256  -44.2291  -21.5478 C   0  0  0  0  0  0  0  0  0  0  0  0
  -14.4113  -43.7728  -21.6134 C   0  0  0  0  0  0  0  0  0  0  0  0
  -13.6285  -43.7820  -20.4675 C   0  0  0  0  0  0  0  0  0  0  0  0
  -14.1728  -44.3029  -19.3114 C   0  0  0  0  0  0  0  0  0  0  0  0
  -15.4273  -44.7938  -19.2244 N   0  0  0  0  0  0  0  0  0  0  0  0
  -18.3061  -45.2632  -18.5812 S   0  0  0  0  0  0  0  0  0  0  0  0
  2  1  1  1
  2  3  1  0
  3  4  1  0
  4  5  1  0
  5  6  1  0
  6  7  1  0
  7  8  1  0
  8  9  2  0
  8 10  1  0
 10 11  1  0
 11 12  1  0
 12 13  1  0
  2 14  1  0
 14 15  2  0
 15 16  1  0
 16 17  2  0
 17 18  1  0
 18 19  2  0
 19 20  1  0
 20 21  2  0
 21 22  1  0
 22 23  2  0
 17 24  1  0
 13 10  1  0
 24 14  1  0
 23 18  1  0
M  END
>  <fragmenstein_mode>  (141) 
expansion

>  <original SMILES>  (141) 
C[C@H](NCCCNC(=O)C1CCC1)c1cnc(-c2ccccn2)s1

>  <fragmenstein_outcome>  (141) 
acceptable

>  <energy_score>  (141) 
-66.509775

>  <tags>  (141) 
['Fragmenstein placed']

>  <original ID>  (141) 
AYRPVLHPYFLNIA-ZDUSSCGKSA-N

>  <alias>  (141) 
None

>  <ref_mols>  (141) 
d0264a,d0472a

>  <HIPPO Pose ID>  (141) 
72937

>  <ref_pdb>  (141) 
d0472a

>  <scratch_subdir>  (141) 
/opt/xchem-fragalysis-2/maxwin/BulkDock/SCRATCH/217037/C11625-P42

>  <HIPPO Compound ID>  (141) 
11625

>  <exports>  (141) 
['/opt/xchem-fragalysis-2/maxwin/BulkDock/OUTPUTS/RdRp_knitwork_primer_grip_n_pocket_pure_split1800_batch003_217037.sdf']

>  <fragmenstein_runtime>  (141) 
5.261388

>  <fragmenstein_error>  (141) 
None

>  <distance_score>  (141) 
0.862768

>  <csv_name>  (141) 
RdRp_knitwork_primer_grip_n_pocket_pure_split1800_batch003.csv

>  <inchikey>  (141) 
AYRPVLHPYFLNIA-ZDUSSCGKSA-N

>  <SLURM_JOB_NAME>  (141) 
BulkDock.place:Flavi_NS5_RdRp:RdRp_knitwork_primer_grip_n_pocket_pure_split1800_batch003

>  <SLURM_JOB_ID>  (141) 
217037

>  <name>  (141) 
AYRPVLHPYFLNIA-ZDUSSCGKSA-N

$$$$
73360
     RDKit          3D

 22 24  0  0  0  0  0  0  0  0999 V2000
  -14.3483  -43.7709  -21.5395 C   0  0  0  0  0  0  0  0  0  0  0  0
  -14.9405  -44.0564  -22.9330 C   0  0  1  0  0  0  0  0  0  0  0  0
  -16.0001  -45.0827  -22.8480 N   0  0  0  0  0  0  0  0  0  0  0  0
  -17.2096  -44.7247  -22.0925 C   0  0  1  0  0  0  0  0  0  0  0  0
  -18.3846  -44.8734  -23.0543 C   0  0  0  0  0  0  0  0  0  0  0  0
  -17.4229  -45.6690  -20.8741 C   0  0  2  0  0  0  0  0  0  0  0  0
  -18.5438  -45.2204  -19.9425 C   0  0  0  0  0  0  0  0  0  0  0  0
  -18.0950  -45.7663  -18.6121 C   0  0  0  0  0  0  0  0  0  0  0  0
  -16.5979  -45.5845  -18.6882 C   0  0  0  0  0  0  0  0  0  0  0  0
  -16.2301  -45.7280  -20.0645 O   0  0  0  0  0  0  0  0  0  0  0  0
  -15.3007  -42.8273  -23.7455 C   0  0  0  0  0  0  0  0  0  0  0  0
  -16.1223  -42.8968  -24.8714 C   0  0  0  0  0  0  0  0  0  0  0  0
  -16.5402  -41.7340  -25.5208 C   0  0  0  0  0  0  0  0  0  0  0  0
  -16.1054  -40.4691  -25.1089 C   0  0  0  0  0  0  0  0  0  0  0  0
  -16.8188  -39.2433  -25.5087 C   0  0  0  0  0  0  0  0  0  0  0  0
  -16.9750  -38.1951  -24.5877 C   0  0  0  0  0  0  0  0  0  0  0  0
  -17.8239  -37.1366  -24.8536 C   0  0  0  0  0  0  0  0  0  0  0  0
  -18.5328  -37.1614  -26.0326 C   0  0  0  0  0  0  0  0  0  0  0  0
  -18.4128  -38.1150  -26.9754 N   0  0  0  0  0  0  0  0  0  0  0  0
  -17.5268  -39.1113  -26.7046 C   0  0  0  0  0  0  0  0  0  0  0  0
  -15.1122  -40.4346  -24.1260 C   0  0  0  0  0  0  0  0  0  0  0  0
  -14.7413  -41.5854  -23.4384 C   0  0  0  0  0  0  0  0  0  0  0  0
  2  1  1  1
  2  3  1  0
  3  4  1  0
  4  5  1  6
  4  6  1  0
  6  7  1  1
  7  8  1  0
  8  9  1  0
  9 10  1  0
  2 11  1  0
 11 12  2  0
 12 13  1  0
 13 14  2  0
 14 15  1  0
 15 16  2  0
 16 17  1  0
 17 18  2  0
 18 19  1  0
 19 20  2  0
 14 21  1  0
 21 22  2  0
 10  6  1  0
 22 11  1  0
 20 15  1  0
M  END
>  <fragmenstein_mode>  (142) 
expansion

>  <original SMILES>  (142) 
C[C@H](N[C@H](C)c1ccc(-c2cccnc2)cc1)[C@@H]1CCCO1

>  <fragmenstein_outcome>  (142) 
acceptable

>  <energy_score>  (142) 
-33.881129

>  <tags>  (142) 
['Fragmenstein placed']

>  <original ID>  (142) 
IBGRYOWVMGBQTA-VCBZYWHSSA-N

>  <alias>  (142) 
None

>  <ref_mols>  (142) 
d0191a,d0254a

>  <HIPPO Pose ID>  (142) 
73360

>  <ref_pdb>  (142) 
d0191a

>  <scratch_subdir>  (142) 
/opt/xchem-fragalysis-2/maxwin/BulkDock/SCRATCH/217035/C17072-P19

>  <HIPPO Compound ID>  (142) 
17072

>  <exports>  (142) 
['/opt/xchem-fragalysis-2/maxwin/BulkDock/OUTPUTS/RdRp_knitwork_primer_grip_n_pocket_pure_split1800_batch001_217035.sdf']

>  <fragmenstein_runtime>  (142) 
9.750204

>  <fragmenstein_error>  (142) 
None

>  <distance_score>  (142) 
0.874065

>  <csv_name>  (142) 
RdRp_knitwork_primer_grip_n_pocket_pure_split1800_batch001.csv

>  <inchikey>  (142) 
IBGRYOWVMGBQTA-VCBZYWHSSA-N

>  <SLURM_JOB_NAME>  (142) 
BulkDock.place:Flavi_NS5_RdRp:RdRp_knitwork_primer_grip_n_pocket_pure_split1800_batch001

>  <SLURM_JOB_ID>  (142) 
217035

>  <name>  (142) 
IBGRYOWVMGBQTA-VCBZYWHSSA-N

$$$$
73409
     RDKit          3D

 23 24  0  0  0  0  0  0  0  0999 V2000
  -23.9826  -43.9045  -19.6309 C   0  0  0  0  0  0  0  0  0  0  0  0
  -24.3706  -44.0818  -18.1663 C   0  0  0  0  0  0  0  0  0  0  0  0
  -25.8426  -43.6855  -18.0194 C   0  0  0  0  0  0  0  0  0  0  0  0
  -24.1411  -45.5380  -17.6955 C   0  0  0  0  0  0  0  0  0  0  0  0
  -22.8885  -45.7376  -16.8178 C   0  0  2  0  0  0  0  0  0  0  0  0
  -21.6750  -45.5796  -17.6281 N   0  0  0  0  0  0  0  0  0  0  0  0
  -20.9479  -44.3126  -18.0980 C   0  0  0  0  0  0  0  0  0  0  0  0
  -21.1500  -43.1929  -17.8545 O   0  0  0  0  0  0  0  0  0  0  0  0
  -19.9059  -44.6623  -19.0394 C   0  0  0  0  0  0  0  0  0  0  0  0
  -19.8585  -44.4015  -20.3910 C   0  0  0  0  0  0  0  0  0  0  0  0
  -18.6407  -44.6351  -20.9988 N   0  0  0  0  0  0  0  0  0  0  0  0
  -17.7432  -44.9339  -20.0720 C   0  0  0  0  0  0  0  0  0  0  0  0
  -16.2836  -44.7434  -20.2346 C   0  0  0  0  0  0  0  0  0  0  0  0
  -15.7667  -44.2880  -21.4478 C   0  0  0  0  0  0  0  0  0  0  0  0
  -14.4469  -43.8444  -21.4988 C   0  0  0  0  0  0  0  0  0  0  0  0
  -13.6837  -43.8470  -20.3402 C   0  0  0  0  0  0  0  0  0  0  0  0
  -14.2565  -44.3449  -19.1863 C   0  0  0  0  0  0  0  0  0  0  0  0
  -15.5176  -44.8251  -19.1130 N   0  0  0  0  0  0  0  0  0  0  0  0
  -18.4308  -45.3517  -18.5349 S   0  0  0  0  0  0  0  0  0  0  0  0
  -22.9578  -47.0917  -16.0877 C   0  0  0  0  0  0  0  0  0  0  0  0
  -22.0617  -47.1432  -15.0856 F   0  0  0  0  0  0  0  0  0  0  0  0
  -22.7054  -48.1178  -16.9342 F   0  0  0  0  0  0  0  0  0  0  0  0
  -24.1719  -47.3163  -15.5357 F   0  0  0  0  0  0  0  0  0  0  0  0
  1  2  1  0
  2  3  1  0
  2  4  1  0
  5  4  1  6
  5  6  1  0
  6  7  1  0
  7  8  2  0
  7  9  1  0
  9 10  2  0
 10 11  1  0
 11 12  2  0
 12 13  1  0
 13 14  2  0
 14 15  1  0
 15 16  2  0
 16 17  1  0
 17 18  2  0
 12 19  1  0
  5 20  1  0
 20 21  1  0
 20 22  1  0
 20 23  1  0
 19  9  1  0
 18 13  1  0
M  END
>  <fragmenstein_mode>  (143) 
expansion

>  <original SMILES>  (143) 
CC(C)C[C@H](NC(=O)c1cnc(-c2ccccn2)s1)C(F)(F)F

>  <fragmenstein_outcome>  (143) 
acceptable

>  <energy_score>  (143) 
-40.513359

>  <tags>  (143) 
['Fragmenstein placed']

>  <original ID>  (143) 
HGMRINZTTPAZBD-LBPRGKRZSA-N

>  <alias>  (143) 
None

>  <ref_mols>  (143) 
d0264a,d0472a

>  <HIPPO Pose ID>  (143) 
73409

>  <ref_pdb>  (143) 
d0472a

>  <scratch_subdir>  (143) 
/opt/xchem-fragalysis-2/maxwin/BulkDock/SCRATCH/217037/C13884-P42

>  <HIPPO Compound ID>  (143) 
13884

>  <exports>  (143) 
['/opt/xchem-fragalysis-2/maxwin/BulkDock/OUTPUTS/RdRp_knitwork_primer_grip_n_pocket_pure_split1800_batch003_217037.sdf']

>  <fragmenstein_runtime>  (143) 
12.097528

>  <fragmenstein_error>  (143) 
None

>  <distance_score>  (143) 
0.941505

>  <csv_name>  (143) 
RdRp_knitwork_primer_grip_n_pocket_pure_split1800_batch003.csv

>  <inchikey>  (143) 
HGMRINZTTPAZBD-LBPRGKRZSA-N

>  <SLURM_JOB_NAME>  (143) 
BulkDock.place:Flavi_NS5_RdRp:RdRp_knitwork_primer_grip_n_pocket_pure_split1800_batch003

>  <SLURM_JOB_ID>  (143) 
217037

>  <name>  (143) 
HGMRINZTTPAZBD-LBPRGKRZSA-N

$$$$
73548
     RDKit          3D

 20 21  0  0  0  0  0  0  0  0999 V2000
  -15.3406  -39.9742  -26.1481 C   0  0  0  0  0  0  0  0  0  0  0  0
  -15.5536  -41.0436  -25.1765 N   0  0  0  0  0  0  0  0  0  0  0  0
  -16.7480  -41.7878  -25.5652 C   0  0  0  0  0  0  0  0  0  0  0  0
  -15.3070  -40.7528  -23.5422 S   0  0  1  0  0  0  0  0  0  0  0  0
  -14.3391  -39.3981  -23.4125 N   0  0  0  0  0  0  0  0  0  0  0  0
  -16.5631  -40.3493  -22.9683 O   0  0  0  0  0  0  0  0  0  0  0  0
  -14.3326  -41.7692  -23.0155 N   0  0  0  0  0  0  0  0  0  0  0  0
  -14.7309  -43.0897  -22.7926 C   0  0  0  0  0  0  0  0  0  0  0  0
  -15.0795  -43.8267  -23.7060 O   0  0  0  0  0  0  0  0  0  0  0  0
  -14.6832  -43.5864  -21.4201 C   0  0  0  0  0  0  0  0  0  0  0  0
  -13.7584  -43.1564  -20.4420 C   0  0  0  0  0  0  0  0  0  0  0  0
  -13.8787  -43.8158  -19.2920 N   0  0  0  0  0  0  0  0  0  0  0  0
  -14.8407  -44.7194  -19.5417 N   0  0  0  0  0  0  0  0  0  0  0  0
  -15.1913  -45.5881  -18.4553 C   0  0  0  0  0  0  0  0  0  0  0  0
  -15.4011  -44.6000  -20.7869 C   0  0  0  0  0  0  0  0  0  0  0  0
  -16.4691  -45.3610  -21.2754 N   0  0  0  0  0  0  0  0  0  0  0  0
  -16.8883  -46.6145  -20.8596 C   0  0  0  0  0  0  0  0  0  0  0  0
  -17.9122  -47.0491  -21.6716 C   0  0  0  0  0  0  0  0  0  0  0  0
  -18.1712  -46.0233  -22.5928 C   0  0  0  0  0  0  0  0  0  0  0  0
  -17.3313  -44.9839  -22.2838 C   0  0  0  0  0  0  0  0  0  0  0  0
  1  2  1  0
  2  3  1  0
  2  4  1  0
  4  5  1  6
  4  6  2  0
  4  7  2  0
  7  8  1  0
  8  9  2  0
  8 10  1  0
 10 11  1  0
 11 12  2  0
 12 13  1  0
 13 14  1  0
 13 15  1  0
 15 16  1  0
 16 17  1  0
 17 18  2  0
 18 19  1  0
 19 20  2  0
 15 10  2  0
 20 16  1  0
M  END
>  <fragmenstein_mode>  (144) 
expansion

>  <original SMILES>  (144) 
CN(C)[S@@](N)(=O)=NC(=O)c1cnn(C)c1-n1cccc1

>  <fragmenstein_outcome>  (144) 
acceptable

>  <energy_score>  (144) 
-80.778188

>  <tags>  (144) 
['Fragmenstein placed']

>  <original ID>  (144) 
FFWXXJFXGUGBRA-FQEVSTJZSA-N

>  <alias>  (144) 
None

>  <ref_mols>  (144) 
d0160a,d0472a

>  <HIPPO Pose ID>  (144) 
73548

>  <ref_pdb>  (144) 
d0160a

>  <scratch_subdir>  (144) 
/opt/xchem-fragalysis-2/maxwin/BulkDock/SCRATCH/217043/C21483-P12

>  <HIPPO Compound ID>  (144) 
21483

>  <exports>  (144) 
['/opt/xchem-fragalysis-2/maxwin/BulkDock/OUTPUTS/RdRp_knitwork_primer_grip_n_pocket_pure_split1800_batch009_217043.sdf']

>  <fragmenstein_runtime>  (144) 
4.256424

>  <fragmenstein_error>  (144) 
None

>  <distance_score>  (144) 
0.885759

>  <csv_name>  (144) 
RdRp_knitwork_primer_grip_n_pocket_pure_split1800_batch009.csv

>  <inchikey>  (144) 
FFWXXJFXGUGBRA-FQEVSTJZSA-N

>  <SLURM_JOB_NAME>  (144) 
BulkDock.place:Flavi_NS5_RdRp:RdRp_knitwork_primer_grip_n_pocket_pure_split1800_batch009

>  <SLURM_JOB_ID>  (144) 
217043

>  <name>  (144) 
FFWXXJFXGUGBRA-FQEVSTJZSA-N

$$$$
73553
     RDKit          3D

 20 21  0  0  0  0  0  0  0  0999 V2000
  -15.3925  -39.9723  -26.1508 C   0  0  0  0  0  0  0  0  0  0  0  0
  -15.5647  -41.0629  -25.1929 N   0  0  0  0  0  0  0  0  0  0  0  0
  -16.7523  -41.8227  -25.5782 C   0  0  0  0  0  0  0  0  0  0  0  0
  -15.3182  -40.7837  -23.5537 S   0  0  1  0  0  0  0  0  0  0  0  0
  -14.3235  -39.4458  -23.4323 N   0  0  0  0  0  0  0  0  0  0  0  0
  -16.5663  -40.3528  -22.9839 O   0  0  0  0  0  0  0  0  0  0  0  0
  -14.3573  -41.8140  -23.0285 N   0  0  0  0  0  0  0  0  0  0  0  0
  -14.7777  -43.1201  -22.7615 C   0  0  0  0  0  0  0  0  0  0  0  0
  -15.1818  -43.8646  -23.6451 O   0  0  0  0  0  0  0  0  0  0  0  0
  -14.6741  -43.5933  -21.3830 C   0  0  0  0  0  0  0  0  0  0  0  0
  -13.6854  -43.1792  -20.4614 C   0  0  0  0  0  0  0  0  0  0  0  0
  -13.7655  -43.8105  -19.2914 N   0  0  0  0  0  0  0  0  0  0  0  0
  -14.8104  -44.6417  -19.4481 N   0  0  0  0  0  0  0  0  0  0  0  0
  -15.2488  -45.3439  -18.2718 C   0  0  0  0  0  0  0  0  0  0  0  0
  -15.3808  -44.5771  -20.6954 C   0  0  0  0  0  0  0  0  0  0  0  0
  -16.4534  -45.3591  -21.1349 N   0  0  0  0  0  0  0  0  0  0  0  0
  -16.7980  -46.6293  -20.7017 C   0  0  0  0  0  0  0  0  0  0  0  0
  -17.8270  -47.1093  -21.4813 C   0  0  0  0  0  0  0  0  0  0  0  0
  -18.1812  -46.0908  -22.3801 C   0  0  0  0  0  0  0  0  0  0  0  0
  -17.3646  -45.0198  -22.1135 C   0  0  0  0  0  0  0  0  0  0  0  0
  1  2  1  0
  2  3  1  0
  2  4  1  0
  4  5  1  6
  4  6  2  0
  4  7  2  0
  7  8  1  0
  8  9  2  0
  8 10  1  0
 10 11  1  0
 11 12  2  0
 12 13  1  0
 13 14  1  0
 13 15  1  0
 15 16  1  0
 16 17  1  0
 17 18  2  0
 18 19  1  0
 19 20  2  0
 15 10  2  0
 20 16  1  0
M  END
>  <fragmenstein_mode>  (145) 
expansion

>  <original SMILES>  (145) 
CN(C)[S@@](N)(=O)=NC(=O)c1cnn(C)c1-n1cccc1

>  <fragmenstein_outcome>  (145) 
acceptable

>  <energy_score>  (145) 
-80.708509

>  <tags>  (145) 
['Fragmenstein placed']

>  <original ID>  (145) 
FFWXXJFXGUGBRA-FQEVSTJZSA-N

>  <alias>  (145) 
None

>  <ref_mols>  (145) 
d0160a,d0472a

>  <HIPPO Pose ID>  (145) 
73553

>  <ref_pdb>  (145) 
d0472a

>  <scratch_subdir>  (145) 
/opt/xchem-fragalysis-2/maxwin/BulkDock/SCRATCH/217043/C21483-P42

>  <HIPPO Compound ID>  (145) 
21483

>  <exports>  (145) 
['/opt/xchem-fragalysis-2/maxwin/BulkDock/OUTPUTS/RdRp_knitwork_primer_grip_n_pocket_pure_split1800_batch009_217043.sdf']

>  <fragmenstein_runtime>  (145) 
4.107632

>  <fragmenstein_error>  (145) 
None

>  <distance_score>  (145) 
0.886836

>  <csv_name>  (145) 
RdRp_knitwork_primer_grip_n_pocket_pure_split1800_batch009.csv

>  <inchikey>  (145) 
FFWXXJFXGUGBRA-FQEVSTJZSA-N

>  <SLURM_JOB_NAME>  (145) 
BulkDock.place:Flavi_NS5_RdRp:RdRp_knitwork_primer_grip_n_pocket_pure_split1800_batch009

>  <SLURM_JOB_ID>  (145) 
217043

>  <name>  (145) 
FFWXXJFXGUGBRA-FQEVSTJZSA-N

$$$$
73572
     RDKit          3D

 15 16  0  0  0  0  0  0  0  0999 V2000
  -17.4038  -40.9024  -22.5001 O   0  0  0  0  0  0  0  0  0  0  0  0
  -16.4515  -41.4308  -23.4550 S   0  0  0  0  0  0  0  0  0  0  0  0
  -16.3309  -42.8599  -23.6672 O   0  0  0  0  0  0  0  0  0  0  0  0
  -14.9083  -40.9316  -22.7790 C   0  0  0  0  0  0  0  0  0  0  0  0
  -14.2087  -41.6912  -21.8159 C   0  0  0  0  0  0  0  0  0  0  0  0
  -13.1499  -40.8991  -21.4433 C   0  0  0  0  0  0  0  0  0  0  0  0
  -13.2461  -39.7624  -22.1870 N   0  0  0  0  0  0  0  0  0  0  0  0
  -14.3000  -39.7484  -23.0216 N   0  0  0  0  0  0  0  0  0  0  0  0
  -16.7052  -40.7102  -24.9482 N   0  0  0  0  0  0  0  0  0  0  0  0
  -15.9315  -41.2385  -26.0854 C   0  0  0  0  0  0  0  0  0  0  0  0
  -15.5699  -40.0239  -26.9146 C   0  0  0  0  0  0  0  0  0  0  0  0
  -16.6433  -39.0094  -26.5833 C   0  0  0  0  0  0  0  0  0  0  0  0
  -16.8351  -39.2349  -25.0814 C   0  0  1  0  0  0  0  0  0  0  0  0
  -18.1617  -38.7032  -24.5592 C   0  0  0  0  0  0  0  0  0  0  0  0
  -19.5753  -39.5487  -25.2431 Cl  0  0  0  0  0  0  0  0  0  0  0  0
  1  2  2  0
  2  3  2  0
  2  4  1  0
  4  5  1  0
  5  6  2  0
  6  7  1  0
  7  8  1  0
  2  9  1  0
  9 10  1  0
 10 11  1  0
 11 12  1  0
 12 13  1  0
 13 14  1  6
 14 15  1  0
  8  4  2  0
 13  9  1  0
M  END
>  <fragmenstein_mode>  (146) 
expansion

>  <original SMILES>  (146) 
O=S(=O)(c1cc[nH]n1)N1CCC[C@H]1CCl

>  <fragmenstein_outcome>  (146) 
acceptable

>  <energy_score>  (146) 
-43.679236

>  <tags>  (146) 
['Fragmenstein placed']

>  <original ID>  (146) 
OPOSJVRARWHRPJ-ZETCQYMHSA-N

>  <alias>  (146) 
None

>  <ref_mols>  (146) 
d0160a,d0866a

>  <HIPPO Pose ID>  (146) 
73572

>  <ref_pdb>  (146) 
d0160a

>  <scratch_subdir>  (146) 
/opt/xchem-fragalysis-2/maxwin/BulkDock/SCRATCH/217039/C13086-P12

>  <HIPPO Compound ID>  (146) 
13086

>  <exports>  (146) 
['/opt/xchem-fragalysis-2/maxwin/BulkDock/OUTPUTS/RdRp_knitwork_primer_grip_n_pocket_pure_split1800_batch005_217039.sdf']

>  <fragmenstein_runtime>  (146) 
2.427165

>  <fragmenstein_error>  (146) 
None

>  <distance_score>  (146) 
0.933793

>  <csv_name>  (146) 
RdRp_knitwork_primer_grip_n_pocket_pure_split1800_batch005.csv

>  <inchikey>  (146) 
OPOSJVRARWHRPJ-ZETCQYMHSA-N

>  <SLURM_JOB_NAME>  (146) 
BulkDock.place:Flavi_NS5_RdRp:RdRp_knitwork_primer_grip_n_pocket_pure_split1800_batch005

>  <SLURM_JOB_ID>  (146) 
217039

>  <name>  (146) 
OPOSJVRARWHRPJ-ZETCQYMHSA-N

$$$$
73574
     RDKit          3D

 15 16  0  0  0  0  0  0  0  0999 V2000
  -17.3622  -40.8523  -22.5652 O   0  0  0  0  0  0  0  0  0  0  0  0
  -16.3712  -41.3724  -23.4840 S   0  0  0  0  0  0  0  0  0  0  0  0
  -16.2410  -42.7993  -23.7055 O   0  0  0  0  0  0  0  0  0  0  0  0
  -14.8550  -40.8849  -22.7413 C   0  0  0  0  0  0  0  0  0  0  0  0
  -14.1626  -41.6779  -21.8009 C   0  0  0  0  0  0  0  0  0  0  0  0
  -13.1048  -40.9001  -21.3967 C   0  0  0  0  0  0  0  0  0  0  0  0
  -13.1993  -39.7361  -22.0977 N   0  0  0  0  0  0  0  0  0  0  0  0
  -14.2471  -39.6929  -22.9375 N   0  0  0  0  0  0  0  0  0  0  0  0
  -16.5366  -40.6257  -24.9766 N   0  0  0  0  0  0  0  0  0  0  0  0
  -15.6058  -41.0697  -26.0338 C   0  0  0  0  0  0  0  0  0  0  0  0
  -15.3512  -39.8437  -26.8933 C   0  0  0  0  0  0  0  0  0  0  0  0
  -16.5077  -38.9151  -26.5931 C   0  0  0  0  0  0  0  0  0  0  0  0
  -16.7396  -39.1621  -25.0997 C   0  0  1  0  0  0  0  0  0  0  0  0
  -18.1137  -38.7042  -24.6326 C   0  0  0  0  0  0  0  0  0  0  0  0
  -19.4521  -39.6000  -25.3996 Cl  0  0  0  0  0  0  0  0  0  0  0  0
  1  2  2  0
  2  3  2  0
  2  4  1  0
  4  5  1  0
  5  6  2  0
  6  7  1  0
  7  8  1  0
  2  9  1  0
  9 10  1  0
 10 11  1  0
 11 12  1  0
 12 13  1  0
 13 14  1  6
 14 15  1  0
  8  4  2  0
 13  9  1  0
M  END
>  <fragmenstein_mode>  (147) 
expansion

>  <original SMILES>  (147) 
O=S(=O)(c1cc[nH]n1)N1CCC[C@H]1CCl

>  <fragmenstein_outcome>  (147) 
acceptable

>  <energy_score>  (147) 
-43.730195

>  <tags>  (147) 
['Fragmenstein placed']

>  <original ID>  (147) 
OPOSJVRARWHRPJ-ZETCQYMHSA-N

>  <alias>  (147) 
None

>  <ref_mols>  (147) 
d0160a,d0866a

>  <HIPPO Pose ID>  (147) 
73574

>  <ref_pdb>  (147) 
d0866a

>  <scratch_subdir>  (147) 
/opt/xchem-fragalysis-2/maxwin/BulkDock/SCRATCH/217039/C13086-P68

>  <HIPPO Compound ID>  (147) 
13086

>  <exports>  (147) 
['/opt/xchem-fragalysis-2/maxwin/BulkDock/OUTPUTS/RdRp_knitwork_primer_grip_n_pocket_pure_split1800_batch005_217039.sdf']

>  <fragmenstein_runtime>  (147) 
2.084053

>  <fragmenstein_error>  (147) 
None

>  <distance_score>  (147) 
0.936695

>  <csv_name>  (147) 
RdRp_knitwork_primer_grip_n_pocket_pure_split1800_batch005.csv

>  <inchikey>  (147) 
OPOSJVRARWHRPJ-ZETCQYMHSA-N

>  <SLURM_JOB_NAME>  (147) 
BulkDock.place:Flavi_NS5_RdRp:RdRp_knitwork_primer_grip_n_pocket_pure_split1800_batch005

>  <SLURM_JOB_ID>  (147) 
217039

>  <name>  (147) 
OPOSJVRARWHRPJ-ZETCQYMHSA-N

$$$$
73685
     RDKit          3D

 23 24  0  0  0  0  0  0  0  0999 V2000
  -20.9586  -43.8914  -21.9587 C   0  0  0  0  0  0  0  0  0  0  0  0
  -20.2296  -43.1543  -20.8622 C   0  0  0  0  0  0  0  0  0  0  0  0
  -19.2483  -44.0388  -20.1787 C   0  0  0  0  0  0  0  0  0  0  0  0
  -18.0653  -44.2901  -20.8434 N   0  0  0  0  0  0  0  0  0  0  0  0
  -17.2105  -44.7721  -19.9711 C   0  0  0  0  0  0  0  0  0  0  0  0
  -15.8358  -44.5377  -20.0952 N   0  0  0  0  0  0  0  0  0  0  0  0
  -14.8357  -44.6743  -19.1408 C   0  0  0  0  0  0  0  0  0  0  0  0
  -13.6986  -44.0393  -19.5933 C   0  0  0  0  0  0  0  0  0  0  0  0
  -13.9618  -43.5894  -20.9025 C   0  0  0  0  0  0  0  0  0  0  0  0
  -15.2552  -43.9397  -21.2018 C   0  0  0  0  0  0  0  0  0  0  0  0
  -17.8639  -45.4075  -18.5366 S   0  0  0  0  0  0  0  0  0  0  0  0
  -19.3092  -44.5731  -18.9043 C   0  0  0  0  0  0  0  0  0  0  0  0
  -20.3104  -44.3978  -17.8903 C   0  0  0  0  0  0  0  0  0  0  0  0
  -20.3229  -43.4612  -17.1938 O   0  0  0  0  0  0  0  0  0  0  0  0
  -21.3160  -45.5720  -18.0129 N   0  0  0  0  0  0  0  0  0  0  0  0
  -22.7564  -45.8124  -17.2872 S   0  0  0  0  0  0  0  0  0  0  0  0
  -23.5656  -46.5489  -18.2275 O   0  0  0  0  0  0  0  0  0  0  0  0
  -23.1673  -44.5391  -16.7479 O   0  0  0  0  0  0  0  0  0  0  0  0
  -22.3144  -46.9013  -15.9742 C   0  0  0  0  0  0  0  0  0  0  0  0
  -23.4639  -47.0040  -15.0154 C   0  0  0  0  0  0  0  0  0  0  0  0
  -23.4952  -45.9225  -13.9514 C   0  0  0  0  0  0  0  0  0  0  0  0
  -23.3647  -48.2003  -14.3745 F   0  0  0  0  0  0  0  0  0  0  0  0
  -24.6529  -47.0601  -15.6527 F   0  0  0  0  0  0  0  0  0  0  0  0
  1  2  1  0
  2  3  1  0
  3  4  1  0
  4  5  2  0
  5  6  1  0
  6  7  1  0
  7  8  2  0
  8  9  1  0
  9 10  2  0
  5 11  1  0
 11 12  1  0
 12 13  1  0
 13 14  2  0
 13 15  1  0
 15 16  1  0
 16 17  2  0
 16 18  2  0
 16 19  1  0
 19 20  1  0
 20 21  1  0
 20 22  1  0
 20 23  1  0
 12  3  2  0
 10  6  1  0
M  END
>  <fragmenstein_mode>  (148) 
expansion

>  <original SMILES>  (148) 
CCc1nc(-n2cccc2)sc1C(=O)NS(=O)(=O)CC(C)(F)F

>  <fragmenstein_outcome>  (148) 
acceptable

>  <energy_score>  (148) 
-113.846069

>  <tags>  (148) 
['Fragmenstein placed']

>  <original ID>  (148) 
UDBONQYAPNZYEB-UHFFFAOYSA-N

>  <alias>  (148) 
None

>  <ref_mols>  (148) 
d0264a,d0472a

>  <HIPPO Pose ID>  (148) 
73685

>  <ref_pdb>  (148) 
d0264a

>  <scratch_subdir>  (148) 
/opt/xchem-fragalysis-2/maxwin/BulkDock/SCRATCH/217037/C14983-P28

>  <HIPPO Compound ID>  (148) 
14983

>  <exports>  (148) 
['/opt/xchem-fragalysis-2/maxwin/BulkDock/OUTPUTS/RdRp_knitwork_primer_grip_n_pocket_pure_split1800_batch003_217037.sdf']

>  <fragmenstein_runtime>  (148) 
10.649641

>  <fragmenstein_error>  (148) 
None

>  <distance_score>  (148) 
0.999521

>  <csv_name>  (148) 
RdRp_knitwork_primer_grip_n_pocket_pure_split1800_batch003.csv

>  <inchikey>  (148) 
UDBONQYAPNZYEB-UHFFFAOYSA-N

>  <SLURM_JOB_NAME>  (148) 
BulkDock.place:Flavi_NS5_RdRp:RdRp_knitwork_primer_grip_n_pocket_pure_split1800_batch003

>  <SLURM_JOB_ID>  (148) 
217037

>  <name>  (148) 
UDBONQYAPNZYEB-UHFFFAOYSA-N

$$$$
74043
     RDKit          3D

 22 23  0  0  0  0  0  0  0  0999 V2000
  -15.4119  -45.7274  -17.9912 C   0  0  0  0  0  0  0  0  0  0  0  0
  -14.7963  -44.9776  -19.0508 N   0  0  0  0  0  0  0  0  0  0  0  0
  -13.6819  -44.3008  -18.7222 N   0  0  0  0  0  0  0  0  0  0  0  0
  -13.4356  -43.5639  -19.7991 C   0  0  0  0  0  0  0  0  0  0  0  0
  -14.4077  -43.7251  -20.8113 C   0  0  0  0  0  0  0  0  0  0  0  0
  -14.3682  -43.0262  -22.0773 C   0  0  0  0  0  0  0  0  0  0  0  0
  -14.8584  -43.4422  -23.1173 O   0  0  0  0  0  0  0  0  0  0  0  0
  -13.7060  -41.8282  -22.0216 O   0  0  0  0  0  0  0  0  0  0  0  0
  -14.3405  -40.7878  -21.2650 C   0  0  0  0  0  0  0  0  0  0  0  0
  -14.2309  -39.4673  -22.0328 C   0  0  0  0  0  0  0  0  0  0  0  0
  -14.4917  -39.5781  -23.5348 C   0  0  0  0  0  0  0  0  0  0  0  0
  -15.7762  -40.3078  -23.9238 C   0  0  0  0  0  0  0  0  0  0  0  0
  -15.6725  -40.9209  -25.3152 C   0  0  0  0  0  0  0  0  0  0  0  0
  -16.8583  -41.7951  -25.6579 C   0  0  0  0  0  0  0  0  0  0  0  0
  -15.5633  -39.9345  -26.2381 F   0  0  0  0  0  0  0  0  0  0  0  0
  -14.5495  -41.6694  -25.4029 F   0  0  0  0  0  0  0  0  0  0  0  0
  -15.2482  -44.7231  -20.3237 C   0  0  0  0  0  0  0  0  0  0  0  0
  -16.3366  -45.3720  -20.9272 N   0  0  0  0  0  0  0  0  0  0  0  0
  -16.8117  -46.6429  -20.6338 C   0  0  0  0  0  0  0  0  0  0  0  0
  -17.8613  -46.9507  -21.4707 C   0  0  0  0  0  0  0  0  0  0  0  0
  -18.0726  -45.8353  -22.2961 C   0  0  0  0  0  0  0  0  0  0  0  0
  -17.1446  -44.8863  -21.9354 C   0  0  0  0  0  0  0  0  0  0  0  0
  1  2  1  0
  2  3  1  0
  3  4  2  0
  4  5  1  0
  5  6  1  0
  6  7  2  0
  6  8  1  0
  8  9  1  0
  9 10  1  0
 10 11  1  0
 11 12  1  0
 12 13  1  0
 13 14  1  0
 13 15  1  0
 13 16  1  0
  5 17  2  0
 17 18  1  0
 18 19  1  0
 19 20  2  0
 20 21  1  0
 21 22  2  0
 17  2  1  0
 22 18  1  0
M  END
>  <fragmenstein_mode>  (149) 
expansion

>  <original SMILES>  (149) 
Cn1ncc(C(=O)OCCCCC(C)(F)F)c1-n1cccc1

>  <fragmenstein_outcome>  (149) 
acceptable

>  <energy_score>  (149) 
-38.390296

>  <tags>  (149) 
['Fragmenstein placed']

>  <original ID>  (149) 
TXVJWSUUKKOFIK-UHFFFAOYSA-N

>  <alias>  (149) 
None

>  <ref_mols>  (149) 
d0160a,d0472a

>  <HIPPO Pose ID>  (149) 
74043

>  <ref_pdb>  (149) 
d0472a

>  <scratch_subdir>  (149) 
/opt/xchem-fragalysis-2/maxwin/BulkDock/SCRATCH/217043/C22012-P42

>  <HIPPO Compound ID>  (149) 
22012

>  <exports>  (149) 
['/opt/xchem-fragalysis-2/maxwin/BulkDock/OUTPUTS/RdRp_knitwork_primer_grip_n_pocket_pure_split1800_batch009_217043.sdf']

>  <fragmenstein_runtime>  (149) 
5.769195

>  <fragmenstein_error>  (149) 
None

>  <distance_score>  (149) 
0.99812

>  <csv_name>  (149) 
RdRp_knitwork_primer_grip_n_pocket_pure_split1800_batch009.csv

>  <inchikey>  (149) 
TXVJWSUUKKOFIK-UHFFFAOYSA-N

>  <SLURM_JOB_NAME>  (149) 
BulkDock.place:Flavi_NS5_RdRp:RdRp_knitwork_primer_grip_n_pocket_pure_split1800_batch009

>  <SLURM_JOB_ID>  (149) 
217043

>  <name>  (149) 
TXVJWSUUKKOFIK-UHFFFAOYSA-N

$$$$
74230
     RDKit          3D

 19 20  0  0  0  0  0  0  0  0999 V2000
  -20.3803  -43.2106  -22.9390 C   0  0  0  0  0  0  0  0  0  0  0  0
  -20.7260  -43.3365  -21.4629 C   0  0  0  0  0  0  0  0  0  0  0  0
  -19.6940  -44.0549  -20.6457 C   0  0  0  0  0  0  0  0  0  0  0  0
  -18.4092  -44.1997  -21.1472 N   0  0  0  0  0  0  0  0  0  0  0  0
  -17.6294  -44.6732  -20.2009 C   0  0  0  0  0  0  0  0  0  0  0  0
  -16.2286  -44.5455  -20.2565 N   0  0  0  0  0  0  0  0  0  0  0  0
  -15.2775  -44.7837  -19.2674 C   0  0  0  0  0  0  0  0  0  0  0  0
  -14.0537  -44.3053  -19.6882 C   0  0  0  0  0  0  0  0  0  0  0  0
  -14.2152  -43.8443  -21.0106 C   0  0  0  0  0  0  0  0  0  0  0  0
  -15.5378  -44.0230  -21.3419 C   0  0  0  0  0  0  0  0  0  0  0  0
  -18.4053  -45.2684  -18.8092 S   0  0  0  0  0  0  0  0  0  0  0  0
  -19.8667  -44.5546  -19.3628 C   0  0  0  0  0  0  0  0  0  0  0  0
  -21.0172  -44.4234  -18.5078 C   0  0  0  0  0  0  0  0  0  0  0  0
  -21.6882  -43.4043  -18.4023 O   0  0  0  0  0  0  0  0  0  0  0  0
  -21.2743  -45.5952  -17.8665 O   0  0  0  0  0  0  0  0  0  0  0  0
  -22.3936  -45.6148  -16.9531 C   0  0  1  0  0  0  0  0  0  0  0  0
  -23.7142  -45.5122  -17.7135 C   0  0  0  0  0  0  0  0  0  0  0  0
  -22.2839  -46.9422  -16.1889 C   0  0  0  0  0  0  0  0  0  0  0  0
  -23.3335  -47.1165  -15.1051 C   0  0  0  0  0  0  0  0  0  0  0  0
  1  2  1  0
  2  3  1  0
  3  4  1  0
  4  5  2  0
  5  6  1  0
  6  7  1  0
  7  8  2  0
  8  9  1  0
  9 10  2  0
  5 11  1  0
 11 12  1  0
 12 13  1  0
 13 14  2  0
 13 15  1  0
 15 16  1  0
 16 17  1  6
 16 18  1  0
 18 19  1  0
 12  3  2  0
 10  6  1  0
M  END
>  <fragmenstein_mode>  (150) 
expansion

>  <original SMILES>  (150) 
CCc1nc(-n2cccc2)sc1C(=O)O[C@@H](C)CC

>  <fragmenstein_outcome>  (150) 
acceptable

>  <energy_score>  (150) 
-73.927571

>  <tags>  (150) 
['Fragmenstein placed']

>  <original ID>  (150) 
NOINGOYTRGWMNJ-JTQLQIEISA-N

>  <alias>  (150) 
None

>  <ref_mols>  (150) 
d0264a,d0472a

>  <HIPPO Pose ID>  (150) 
74230

>  <ref_pdb>  (150) 
d0472a

>  <scratch_subdir>  (150) 
/opt/xchem-fragalysis-2/maxwin/BulkDock/SCRATCH/217037/C15932-P42

>  <HIPPO Compound ID>  (150) 
15932

>  <exports>  (150) 
['/opt/xchem-fragalysis-2/maxwin/BulkDock/OUTPUTS/RdRp_knitwork_primer_grip_n_pocket_pure_split1800_batch003_217037.sdf']

>  <fragmenstein_runtime>  (150) 
7.354595

>  <fragmenstein_error>  (150) 
None

>  <distance_score>  (150) 
0.97023

>  <csv_name>  (150) 
RdRp_knitwork_primer_grip_n_pocket_pure_split1800_batch003.csv

>  <inchikey>  (150) 
NOINGOYTRGWMNJ-JTQLQIEISA-N

>  <SLURM_JOB_NAME>  (150) 
BulkDock.place:Flavi_NS5_RdRp:RdRp_knitwork_primer_grip_n_pocket_pure_split1800_batch003

>  <SLURM_JOB_ID>  (150) 
217037

>  <name>  (150) 
NOINGOYTRGWMNJ-JTQLQIEISA-N

$$$$
75009
     RDKit          3D

 16 17  0  0  0  0  0  0  0  0999 V2000
  -18.4719  -44.1515  -22.5007 O   0  0  0  0  0  0  0  0  0  0  0  0
  -17.8799  -43.8088  -23.5123 C   0  0  0  0  0  0  0  0  0  0  0  0
  -18.5401  -43.7274  -24.6832 O   0  0  0  0  0  0  0  0  0  0  0  0
  -16.4397  -43.3603  -23.6134 C   0  0  2  0  0  0  0  0  0  0  0  0
  -15.6486  -43.9227  -22.4540 C   0  0  0  0  0  0  0  0  0  0  0  0
  -15.8997  -42.9344  -21.3349 C   0  0  0  0  0  0  0  0  0  0  0  0
  -16.4569  -41.7512  -21.9231 O   0  0  0  0  0  0  0  0  0  0  0  0
  -16.3848  -41.8721  -23.3609 C   0  0  1  0  0  0  0  0  0  0  0  0
  -15.0853  -41.1668  -23.7773 C   0  0  0  0  0  0  0  0  0  0  0  0
  -14.7970  -40.9717  -25.1834 N   0  0  0  0  0  0  0  0  0  0  0  0
  -15.8808  -40.6178  -26.0735 C   0  0  0  0  0  0  0  0  0  0  0  0
  -16.5983  -39.3146  -25.9027 C   0  0  0  0  0  0  0  0  0  0  0  0
  -17.3491  -38.7034  -26.8878 C   0  0  0  0  0  0  0  0  0  0  0  0
  -18.1362  -37.6346  -26.5126 N   0  0  0  0  0  0  0  0  0  0  0  0
  -17.8539  -37.3431  -25.2604 C   0  0  0  0  0  0  0  0  0  0  0  0
  -16.7392  -38.3805  -24.4773 S   0  0  0  0  0  0  0  0  0  0  0  0
  1  2  2  0
  2  3  1  0
  4  2  1  1
  4  5  1  0
  5  6  1  0
  6  7  1  0
  7  8  1  0
  8  9  1  1
  9 10  1  0
 10 11  1  0
 11 12  1  0
 12 13  2  0
 13 14  1  0
 14 15  2  0
 15 16  1  0
  8  4  1  0
 16 12  1  0
M  END
>  <fragmenstein_mode>  (151) 
expansion

>  <original SMILES>  (151) 
O=C(O)[C@@H]1CCO[C@H]1CNCc1cncs1

>  <fragmenstein_outcome>  (151) 
acceptable

>  <energy_score>  (151) 
-76.193431

>  <tags>  (151) 
['Fragmenstein placed']

>  <original ID>  (151) 
AIKMHADXUOCSLX-BDAKNGLRSA-N

>  <alias>  (151) 
None

>  <ref_mols>  (151) 
d0254a,d0615b

>  <HIPPO Pose ID>  (151) 
75009

>  <ref_pdb>  (151) 
d0615b

>  <scratch_subdir>  (151) 
/opt/xchem-fragalysis-2/maxwin/BulkDock/SCRATCH/217035/C22253-P51

>  <HIPPO Compound ID>  (151) 
22253

>  <exports>  (151) 
['/opt/xchem-fragalysis-2/maxwin/BulkDock/OUTPUTS/RdRp_knitwork_primer_grip_n_pocket_pure_split1800_batch001_217035.sdf']

>  <fragmenstein_runtime>  (151) 
2.261087

>  <fragmenstein_error>  (151) 
None

>  <distance_score>  (151) 
0.983795

>  <csv_name>  (151) 
RdRp_knitwork_primer_grip_n_pocket_pure_split1800_batch001.csv

>  <inchikey>  (151) 
AIKMHADXUOCSLX-BDAKNGLRSA-N

>  <SLURM_JOB_NAME>  (151) 
BulkDock.place:Flavi_NS5_RdRp:RdRp_knitwork_primer_grip_n_pocket_pure_split1800_batch001

>  <SLURM_JOB_ID>  (151) 
217035

>  <name>  (151) 
AIKMHADXUOCSLX-BDAKNGLRSA-N

$$$$
75040
     RDKit          3D

 14 15  0  0  0  0  0  0  0  0999 V2000
  -14.3928  -41.9602  -22.6170 C   0  0  0  0  0  0  0  0  0  0  0  0
  -14.7470  -42.3860  -24.0412 C   0  0  0  0  0  0  0  0  0  0  0  0
  -15.9193  -41.5985  -24.6760 C   0  0  1  0  0  0  0  0  0  0  0  0
  -15.4682  -40.2638  -25.4005 C   0  0  2  0  0  0  0  0  0  0  0  0
  -14.3256  -39.5668  -24.7906 N   0  0  0  0  0  0  0  0  0  0  0  0
  -16.5866  -39.2613  -25.5958 C   0  0  0  0  0  0  0  0  0  0  0  0
  -17.2642  -38.9288  -26.7553 C   0  0  0  0  0  0  0  0  0  0  0  0
  -18.2580  -37.9654  -26.6418 N   0  0  0  0  0  0  0  0  0  0  0  0
  -18.2686  -37.5300  -25.3992 C   0  0  0  0  0  0  0  0  0  0  0  0
  -17.1620  -38.2583  -24.3185 S   0  0  0  0  0  0  0  0  0  0  0  0
  -16.6371  -42.5325  -25.6644 C   0  0  0  0  0  0  0  0  0  0  0  0
  -17.5675  -43.3535  -24.7899 C   0  0  0  0  0  0  0  0  0  0  0  0
  -17.5334  -42.6813  -23.4349 C   0  0  0  0  0  0  0  0  0  0  0  0
  -16.9137  -41.4100  -23.6447 O   0  0  0  0  0  0  0  0  0  0  0  0
  1  2  1  0
  3  2  1  1
  3  4  1  0
  4  5  1  1
  4  6  1  0
  6  7  2  0
  7  8  1  0
  8  9  2  0
  9 10  1  0
  3 11  1  0
 11 12  1  0
 12 13  1  0
 13 14  1  0
 14  3  1  0
 10  6  1  0
M  END
>  <fragmenstein_mode>  (152) 
expansion

>  <original SMILES>  (152) 
CC[C@@]1([C@H](N)c2cncs2)CCCO1

>  <fragmenstein_outcome>  (152) 
acceptable

>  <energy_score>  (152) 
-31.597781

>  <tags>  (152) 
['Fragmenstein placed']

>  <original ID>  (152) 
GUFDDOCDYVUCQD-ZJUUUORDSA-N

>  <alias>  (152) 
None

>  <ref_mols>  (152) 
d0254a,d0615b

>  <HIPPO Pose ID>  (152) 
75040

>  <ref_pdb>  (152) 
d0254a

>  <scratch_subdir>  (152) 
/opt/xchem-fragalysis-2/maxwin/BulkDock/SCRATCH/217035/C22360-P26

>  <HIPPO Compound ID>  (152) 
22360

>  <exports>  (152) 
['/opt/xchem-fragalysis-2/maxwin/BulkDock/OUTPUTS/RdRp_knitwork_primer_grip_n_pocket_pure_split1800_batch001_217035.sdf']

>  <fragmenstein_runtime>  (152) 
2.356851

>  <fragmenstein_error>  (152) 
None

>  <distance_score>  (152) 
0.9512

>  <csv_name>  (152) 
RdRp_knitwork_primer_grip_n_pocket_pure_split1800_batch001.csv

>  <inchikey>  (152) 
GUFDDOCDYVUCQD-ZJUUUORDSA-N

>  <SLURM_JOB_NAME>  (152) 
BulkDock.place:Flavi_NS5_RdRp:RdRp_knitwork_primer_grip_n_pocket_pure_split1800_batch001

>  <SLURM_JOB_ID>  (152) 
217035

>  <name>  (152) 
GUFDDOCDYVUCQD-ZJUUUORDSA-N

$$$$
75055
     RDKit          3D

 14 15  0  0  0  0  0  0  0  0999 V2000
  -16.1097  -41.4682  -21.6651 C   0  0  0  0  0  0  0  0  0  0  0  0
  -14.8876  -41.7397  -22.5326 C   0  0  0  0  0  0  0  0  0  0  0  0
  -15.1989  -42.1677  -23.9612 C   0  0  1  0  0  0  0  0  0  0  0  0
  -15.9588  -43.3981  -23.9309 O   0  0  0  0  0  0  0  0  0  0  0  0
  -16.8670  -43.3722  -25.0375 C   0  0  0  0  0  0  0  0  0  0  0  0
  -16.4854  -42.1860  -25.8869 C   0  0  0  0  0  0  0  0  0  0  0  0
  -16.0467  -41.2199  -24.8024 C   0  0  2  0  0  0  0  0  0  0  0  0
  -15.4075  -39.9062  -25.2707 C   0  0  1  0  0  0  0  0  0  0  0  0
  -14.5042  -40.0342  -26.3967 N   0  0  0  0  0  0  0  0  0  0  0  0
  -16.5053  -38.9159  -25.5673 C   0  0  0  0  0  0  0  0  0  0  0  0
  -17.2496  -38.7021  -26.7120 C   0  0  0  0  0  0  0  0  0  0  0  0
  -18.2969  -37.7964  -26.6070 N   0  0  0  0  0  0  0  0  0  0  0  0
  -18.2730  -37.2736  -25.3992 C   0  0  0  0  0  0  0  0  0  0  0  0
  -17.0843  -37.8743  -24.3253 S   0  0  0  0  0  0  0  0  0  0  0  0
  1  2  1  0
  3  2  1  1
  3  4  1  0
  4  5  1  0
  5  6  1  0
  7  6  1  6
  7  8  1  0
  8  9  1  6
  8 10  1  0
 10 11  2  0
 11 12  1  0
 12 13  2  0
 13 14  1  0
  7  3  1  0
 14 10  1  0
M  END
>  <fragmenstein_mode>  (153) 
expansion

>  <original SMILES>  (153) 
CC[C@H]1OCC[C@@H]1[C@@H](N)c1cncs1

>  <fragmenstein_outcome>  (153) 
acceptable

>  <energy_score>  (153) 
-70.889319

>  <tags>  (153) 
['Fragmenstein placed']

>  <original ID>  (153) 
MXLQRTYKAIFMPB-QXFUBDJGSA-N

>  <alias>  (153) 
None

>  <ref_mols>  (153) 
d0254a,d0615b

>  <HIPPO Pose ID>  (153) 
75055

>  <ref_pdb>  (153) 
d0254a

>  <scratch_subdir>  (153) 
/opt/xchem-fragalysis-2/maxwin/BulkDock/SCRATCH/217035/C22423-P26

>  <HIPPO Compound ID>  (153) 
22423

>  <exports>  (153) 
['/opt/xchem-fragalysis-2/maxwin/BulkDock/OUTPUTS/RdRp_knitwork_primer_grip_n_pocket_pure_split1800_batch001_217035.sdf']

>  <fragmenstein_runtime>  (153) 
1.738104

>  <fragmenstein_error>  (153) 
None

>  <distance_score>  (153) 
0.999088

>  <csv_name>  (153) 
RdRp_knitwork_primer_grip_n_pocket_pure_split1800_batch001.csv

>  <inchikey>  (153) 
MXLQRTYKAIFMPB-QXFUBDJGSA-N

>  <SLURM_JOB_NAME>  (153) 
BulkDock.place:Flavi_NS5_RdRp:RdRp_knitwork_primer_grip_n_pocket_pure_split1800_batch001

>  <SLURM_JOB_ID>  (153) 
217035

>  <name>  (153) 
MXLQRTYKAIFMPB-QXFUBDJGSA-N

$$$$
75081
     RDKit          3D

 13 14  0  0  0  0  0  0  0  0999 V2000
  -14.2854  -39.5546  -26.4078 C   0  0  0  0  0  0  0  0  0  0  0  0
  -15.2122  -40.5514  -26.8837 N   0  0  0  0  0  0  0  0  0  0  0  0
  -16.3566  -40.7373  -26.0127 C   0  0  2  0  0  0  0  0  0  0  0  0
  -17.0332  -39.4211  -25.7191 C   0  0  0  0  0  0  0  0  0  0  0  0
  -17.6449  -38.6245  -26.6758 C   0  0  0  0  0  0  0  0  0  0  0  0
  -18.2813  -37.4853  -26.2348 N   0  0  0  0  0  0  0  0  0  0  0  0
  -18.0326  -37.3572  -24.9490 C   0  0  0  0  0  0  0  0  0  0  0  0
  -17.1277  -38.6173  -24.2150 S   0  0  0  0  0  0  0  0  0  0  0  0
  -16.0748  -41.7890  -24.9386 C   0  0  2  0  0  0  0  0  0  0  0  0
  -17.2671  -42.3289  -24.1914 C   0  0  0  0  0  0  0  0  0  0  0  0
  -16.5918  -43.1510  -23.1202 C   0  0  0  0  0  0  0  0  0  0  0  0
  -15.4010  -42.4371  -22.7661 O   0  0  0  0  0  0  0  0  0  0  0  0
  -15.1090  -41.4919  -23.8116 C   0  0  0  0  0  0  0  0  0  0  0  0
  1  2  1  0
  3  2  1  1
  3  4  1  0
  4  5  2  0
  5  6  1  0
  6  7  2  0
  7  8  1  0
  3  9  1  0
  9 10  1  1
 10 11  1  0
 11 12  1  0
 12 13  1  0
  8  4  1  0
 13  9  1  0
M  END
>  <fragmenstein_mode>  (154) 
expansion

>  <original SMILES>  (154) 
CN[C@H](c1cncs1)[C@@H]1CCOC1

>  <fragmenstein_outcome>  (154) 
acceptable

>  <energy_score>  (154) 
-71.38824

>  <tags>  (154) 
['Fragmenstein placed']

>  <original ID>  (154) 
GSPDGNODYSQVGM-APPZFPTMSA-N

>  <alias>  (154) 
None

>  <ref_mols>  (154) 
d0254a,d0615b

>  <HIPPO Pose ID>  (154) 
75081

>  <ref_pdb>  (154) 
d0254a

>  <scratch_subdir>  (154) 
/opt/xchem-fragalysis-2/maxwin/BulkDock/SCRATCH/217035/C22926-P26

>  <HIPPO Compound ID>  (154) 
22926

>  <exports>  (154) 
['/opt/xchem-fragalysis-2/maxwin/BulkDock/OUTPUTS/RdRp_knitwork_primer_grip_n_pocket_pure_split1800_batch001_217035.sdf']

>  <fragmenstein_runtime>  (154) 
2.092875

>  <fragmenstein_error>  (154) 
None

>  <distance_score>  (154) 
0.992852

>  <csv_name>  (154) 
RdRp_knitwork_primer_grip_n_pocket_pure_split1800_batch001.csv

>  <inchikey>  (154) 
GSPDGNODYSQVGM-APPZFPTMSA-N

>  <SLURM_JOB_NAME>  (154) 
BulkDock.place:Flavi_NS5_RdRp:RdRp_knitwork_primer_grip_n_pocket_pure_split1800_batch001

>  <SLURM_JOB_ID>  (154) 
217035

>  <name>  (154) 
GSPDGNODYSQVGM-APPZFPTMSA-N

$$$$
75153
     RDKit          3D

 15 16  0  0  0  0  0  0  0  0999 V2000
  -17.1808  -42.4036  -26.1460 C   0  0  0  0  0  0  0  0  0  0  0  0
  -16.9761  -42.5817  -24.6791 C   0  0  0  0  0  0  0  0  0  0  0  0
  -17.8310  -43.4719  -24.0035 C   0  0  0  0  0  0  0  0  0  0  0  0
  -17.6533  -43.7468  -22.6555 C   0  0  0  0  0  0  0  0  0  0  0  0
  -16.6347  -43.0969  -22.0007 C   0  0  0  0  0  0  0  0  0  0  0  0
  -15.8255  -42.2038  -22.5992 N   0  0  0  0  0  0  0  0  0  0  0  0
  -15.9860  -41.9364  -23.9361 C   0  0  0  0  0  0  0  0  0  0  0  0
  -14.8995  -41.0119  -24.4921 C   0  0  2  0  0  0  0  0  0  0  0  0
  -14.2415  -40.2805  -23.3624 N   0  0  0  0  0  0  0  0  0  0  0  0
  -15.1720  -40.0440  -25.6678 C   0  0  0  0  0  0  0  0  0  0  0  0
  -16.3691  -39.1372  -25.6149 C   0  0  0  0  0  0  0  0  0  0  0  0
  -17.2089  -38.8028  -26.6649 C   0  0  0  0  0  0  0  0  0  0  0  0
  -18.2368  -37.9211  -26.3847 N   0  0  0  0  0  0  0  0  0  0  0  0
  -18.1239  -37.5493  -25.1261 C   0  0  0  0  0  0  0  0  0  0  0  0
  -16.8439  -38.2573  -24.2275 S   0  0  0  0  0  0  0  0  0  0  0  0
  1  2  1  0
  2  3  2  0
  3  4  1  0
  4  5  2  0
  5  6  1  0
  6  7  2  0
  7  8  1  0
  8  9  1  1
  8 10  1  0
 10 11  1  0
 11 12  2  0
 12 13  1  0
 13 14  2  0
 14 15  1  0
  7  2  1  0
 15 11  1  0
M  END
>  <fragmenstein_mode>  (155) 
expansion

>  <original SMILES>  (155) 
Cc1cccnc1[C@H](N)Cc1cncs1

>  <fragmenstein_outcome>  (155) 
acceptable

>  <energy_score>  (155) 
-38.743068

>  <tags>  (155) 
['Fragmenstein placed']

>  <original ID>  (155) 
FIEYKTMTQAVOEV-SNVBAGLBSA-N

>  <alias>  (155) 
None

>  <ref_mols>  (155) 
d0160a,d0615b

>  <HIPPO Pose ID>  (155) 
75153

>  <ref_pdb>  (155) 
d0160a

>  <scratch_subdir>  (155) 
/opt/xchem-fragalysis-2/maxwin/BulkDock/SCRATCH/217043/C18392-P12

>  <HIPPO Compound ID>  (155) 
18392

>  <exports>  (155) 
['/opt/xchem-fragalysis-2/maxwin/BulkDock/OUTPUTS/RdRp_knitwork_primer_grip_n_pocket_pure_split1800_batch009_217043.sdf']

>  <fragmenstein_runtime>  (155) 
1.550161

>  <fragmenstein_error>  (155) 
None

>  <distance_score>  (155) 
0.920848

>  <csv_name>  (155) 
RdRp_knitwork_primer_grip_n_pocket_pure_split1800_batch009.csv

>  <inchikey>  (155) 
FIEYKTMTQAVOEV-SNVBAGLBSA-N

>  <SLURM_JOB_NAME>  (155) 
BulkDock.place:Flavi_NS5_RdRp:RdRp_knitwork_primer_grip_n_pocket_pure_split1800_batch009

>  <SLURM_JOB_ID>  (155) 
217043

>  <name>  (155) 
FIEYKTMTQAVOEV-SNVBAGLBSA-N

$$$$
75171
     RDKit          3D

 15 16  0  0  0  0  0  0  0  0999 V2000
  -18.3494  -44.9863  -22.1824 C   0  0  0  0  0  0  0  0  0  0  0  0
  -17.4011  -43.9764  -22.7332 C   0  0  0  0  0  0  0  0  0  0  0  0
  -16.1840  -43.7067  -22.1270 C   0  0  0  0  0  0  0  0  0  0  0  0
  -15.3478  -42.7510  -22.6879 C   0  0  0  0  0  0  0  0  0  0  0  0
  -15.7659  -42.0333  -23.8163 C   0  0  0  0  0  0  0  0  0  0  0  0
  -14.8432  -40.9645  -24.3930 C   0  0  2  0  0  0  0  0  0  0  0  0
  -14.3690  -40.0106  -23.3585 N   0  0  0  0  0  0  0  0  0  0  0  0
  -15.3045  -40.2585  -25.6925 C   0  0  0  0  0  0  0  0  0  0  0  0
  -16.4449  -39.2716  -25.6674 C   0  0  0  0  0  0  0  0  0  0  0  0
  -17.1855  -38.8597  -26.7625 C   0  0  0  0  0  0  0  0  0  0  0  0
  -18.1969  -37.9409  -26.5312 N   0  0  0  0  0  0  0  0  0  0  0  0
  -18.1470  -37.5968  -25.2614 C   0  0  0  0  0  0  0  0  0  0  0  0
  -16.9735  -38.3928  -24.2990 S   0  0  0  0  0  0  0  0  0  0  0  0
  -16.9359  -42.3041  -24.4322 N   0  0  0  0  0  0  0  0  0  0  0  0
  -17.7063  -43.2754  -23.8921 C   0  0  0  0  0  0  0  0  0  0  0  0
  1  2  1  0
  2  3  2  0
  3  4  1  0
  4  5  2  0
  5  6  1  0
  6  7  1  1
  6  8  1  0
  8  9  1  0
  9 10  2  0
 10 11  1  0
 11 12  2  0
 12 13  1  0
  5 14  1  0
 14 15  2  0
 15  2  1  0
 13  9  1  0
M  END
>  <fragmenstein_mode>  (156) 
expansion

>  <original SMILES>  (156) 
Cc1ccc([C@H](N)Cc2cncs2)nc1

>  <fragmenstein_outcome>  (156) 
acceptable

>  <energy_score>  (156) 
-107.232177

>  <tags>  (156) 
['Fragmenstein placed']

>  <original ID>  (156) 
KIAMZZSVGPIMKF-SNVBAGLBSA-N

>  <alias>  (156) 
None

>  <ref_mols>  (156) 
d0160a,d0615b

>  <HIPPO Pose ID>  (156) 
75171

>  <ref_pdb>  (156) 
d0615b

>  <scratch_subdir>  (156) 
/opt/xchem-fragalysis-2/maxwin/BulkDock/SCRATCH/217043/C18403-P51

>  <HIPPO Compound ID>  (156) 
18403

>  <exports>  (156) 
['/opt/xchem-fragalysis-2/maxwin/BulkDock/OUTPUTS/RdRp_knitwork_primer_grip_n_pocket_pure_split1800_batch009_217043.sdf']

>  <fragmenstein_runtime>  (156) 
2.094401

>  <fragmenstein_error>  (156) 
None

>  <distance_score>  (156) 
0.944376

>  <csv_name>  (156) 
RdRp_knitwork_primer_grip_n_pocket_pure_split1800_batch009.csv

>  <inchikey>  (156) 
KIAMZZSVGPIMKF-SNVBAGLBSA-N

>  <SLURM_JOB_NAME>  (156) 
BulkDock.place:Flavi_NS5_RdRp:RdRp_knitwork_primer_grip_n_pocket_pure_split1800_batch009

>  <SLURM_JOB_ID>  (156) 
217043

>  <name>  (156) 
KIAMZZSVGPIMKF-SNVBAGLBSA-N

$$$$
75307
     RDKit          3D

 22 24  0  0  0  0  0  0  0  0999 V2000
  -15.5791  -43.4147  -20.4888 O   0  0  0  0  0  0  0  0  0  0  0  0
  -15.7960  -43.4145  -21.6368 C   0  0  0  0  0  0  0  0  0  0  0  0
  -16.6723  -44.4913  -22.2949 C   0  0  0  0  0  0  0  0  0  0  0  0
  -17.6590  -44.1479  -23.4245 C   0  0  0  0  0  0  0  0  0  0  0  0
  -18.7332  -43.0934  -23.1411 C   0  0  0  0  0  0  0  0  0  0  0  0
  -18.1929  -41.7381  -23.0603 N   0  0  0  0  0  0  0  0  0  0  0  0
  -18.7275  -40.7967  -24.0557 C   0  0  0  0  0  0  0  0  0  0  0  0
  -20.0789  -40.1729  -23.7149 C   0  0  0  0  0  0  0  0  0  0  0  0
  -20.0743  -39.5600  -22.3215 C   0  0  0  0  0  0  0  0  0  0  0  0
  -19.5508  -40.5511  -21.2914 C   0  0  0  0  0  0  0  0  0  0  0  0
  -18.2076  -41.1461  -21.7131 C   0  0  0  0  0  0  0  0  0  0  0  0
  -15.3301  -42.4417  -22.7443 N   0  0  0  0  0  0  0  0  0  0  0  0
  -14.6193  -41.2790  -22.6621 C   0  0  0  0  0  0  0  0  0  0  0  0
  -13.9188  -40.7937  -21.5916 C   0  0  0  0  0  0  0  0  0  0  0  0
  -13.4880  -39.5555  -21.9645 N   0  0  0  0  0  0  0  0  0  0  0  0
  -13.9001  -39.1767  -23.1872 N   0  0  0  0  0  0  0  0  0  0  0  0
  -14.5591  -40.2550  -23.6492 C   0  0  0  0  0  0  0  0  0  0  0  0
  -15.2570  -40.3300  -25.0810 C   0  0  0  0  0  0  0  0  0  0  0  0
  -15.4788  -39.2732  -25.8320 N   0  0  0  0  0  0  0  0  0  0  0  0
  -16.1149  -39.6407  -26.9957 C   0  0  0  0  0  0  0  0  0  0  0  0
  -16.3501  -40.9852  -27.1509 C   0  0  0  0  0  0  0  0  0  0  0  0
  -15.8346  -41.8089  -25.7574 S   0  0  0  0  0  0  0  0  0  0  0  0
  1  2  2  0
  2  3  1  0
  3  4  1  0
  4  5  1  0
  5  6  1  0
  6  7  1  0
  7  8  1  0
  8  9  1  0
  9 10  1  0
 10 11  1  0
  2 12  1  0
 12 13  1  0
 13 14  2  0
 14 15  1  0
 15 16  1  0
 16 17  2  0
 17 18  1  0
 18 19  2  0
 19 20  1  0
 20 21  2  0
 21 22  1  0
 11  6  1  0
 17 13  1  0
 22 18  1  0
M  END
>  <fragmenstein_mode>  (157) 
expansion

>  <original SMILES>  (157) 
O=C(CCCN1CCCCC1)Nc1c[nH]nc1-c1nccs1

>  <fragmenstein_outcome>  (157) 
acceptable

>  <energy_score>  (157) 
-108.739974

>  <tags>  (157) 
['Fragmenstein placed']

>  <original ID>  (157) 
LDTDGTBCQNMDSI-UHFFFAOYSA-N

>  <alias>  (157) 
None

>  <ref_mols>  (157) 
d0160a,d0615b

>  <HIPPO Pose ID>  (157) 
75307

>  <ref_pdb>  (157) 
d0160a

>  <scratch_subdir>  (157) 
/opt/xchem-fragalysis-2/maxwin/BulkDock/SCRATCH/217043/C22680-P12

>  <HIPPO Compound ID>  (157) 
22680

>  <exports>  (157) 
['/opt/xchem-fragalysis-2/maxwin/BulkDock/OUTPUTS/RdRp_knitwork_primer_grip_n_pocket_pure_split1800_batch009_217043.sdf']

>  <fragmenstein_runtime>  (157) 
4.742774

>  <fragmenstein_error>  (157) 
None

>  <distance_score>  (157) 
0.961724

>  <csv_name>  (157) 
RdRp_knitwork_primer_grip_n_pocket_pure_split1800_batch009.csv

>  <inchikey>  (157) 
LDTDGTBCQNMDSI-UHFFFAOYSA-N

>  <SLURM_JOB_NAME>  (157) 
BulkDock.place:Flavi_NS5_RdRp:RdRp_knitwork_primer_grip_n_pocket_pure_split1800_batch009

>  <SLURM_JOB_ID>  (157) 
217043

>  <name>  (157) 
LDTDGTBCQNMDSI-UHFFFAOYSA-N

$$$$
75560
     RDKit          3D

 15 16  0  0  0  0  0  0  0  0999 V2000
  -17.9433  -45.6233  -22.6725 N   0  0  0  0  0  0  0  0  0  0  0  0
  -18.5151  -44.3868  -23.2115 C   0  0  0  0  0  0  0  0  0  0  0  0
  -17.5155  -43.2197  -23.2085 C   0  0  2  0  0  0  0  0  0  0  0  0
  -16.5503  -43.1935  -24.3898 C   0  0  0  0  0  0  0  0  0  0  0  0
  -15.2673  -42.6657  -23.7718 C   0  0  1  0  0  0  0  0  0  0  0  0
  -15.2658  -41.1376  -23.6271 C   0  0  0  0  0  0  0  0  0  0  0  0
  -14.6147  -40.4105  -24.7122 N   0  0  0  0  0  0  0  0  0  0  0  0
  -15.3924  -40.1621  -25.9188 C   0  0  0  0  0  0  0  0  0  0  0  0
  -16.4806  -39.1331  -25.8273 C   0  0  0  0  0  0  0  0  0  0  0  0
  -17.4031  -38.8261  -26.8123 C   0  0  0  0  0  0  0  0  0  0  0  0
  -18.3301  -37.8392  -26.5213 N   0  0  0  0  0  0  0  0  0  0  0  0
  -18.0594  -37.3679  -25.3219 C   0  0  0  0  0  0  0  0  0  0  0  0
  -16.7421  -38.0849  -24.4952 S   0  0  0  0  0  0  0  0  0  0  0  0
  -15.3348  -43.3274  -22.4023 C   0  0  0  0  0  0  0  0  0  0  0  0
  -16.7115  -43.2953  -22.0101 O   0  0  0  0  0  0  0  0  0  0  0  0
  1  2  1  0
  3  2  1  6
  3  4  1  0
  4  5  1  0
  5  6  1  1
  6  7  1  0
  7  8  1  0
  8  9  1  0
  9 10  2  0
 10 11  1  0
 11 12  2  0
 12 13  1  0
  5 14  1  0
 14 15  1  0
 15  3  1  0
 13  9  1  0
M  END
>  <fragmenstein_mode>  (158) 
expansion

>  <original SMILES>  (158) 
NC[C@@H]1C[C@@H](CNCc2cncs2)CO1

>  <fragmenstein_outcome>  (158) 
acceptable

>  <energy_score>  (158) 
-103.018668

>  <tags>  (158) 
['Fragmenstein placed']

>  <original ID>  (158) 
ROUNVNLNYKULJE-IUCAKERBSA-N

>  <alias>  (158) 
None

>  <ref_mols>  (158) 
d0254a,d0615b

>  <HIPPO Pose ID>  (158) 
75560

>  <ref_pdb>  (158) 
d0254a

>  <scratch_subdir>  (158) 
/opt/xchem-fragalysis-2/maxwin/BulkDock/SCRATCH/217035/C23087-P26

>  <HIPPO Compound ID>  (158) 
23087

>  <exports>  (158) 
['/opt/xchem-fragalysis-2/maxwin/BulkDock/OUTPUTS/RdRp_knitwork_primer_grip_n_pocket_pure_split1800_batch001_217035.sdf']

>  <fragmenstein_runtime>  (158) 
1.905777

>  <fragmenstein_error>  (158) 
None

>  <distance_score>  (158) 
0.814385

>  <csv_name>  (158) 
RdRp_knitwork_primer_grip_n_pocket_pure_split1800_batch001.csv

>  <inchikey>  (158) 
ROUNVNLNYKULJE-IUCAKERBSA-N

>  <SLURM_JOB_NAME>  (158) 
BulkDock.place:Flavi_NS5_RdRp:RdRp_knitwork_primer_grip_n_pocket_pure_split1800_batch001

>  <SLURM_JOB_ID>  (158) 
217035

>  <name>  (158) 
ROUNVNLNYKULJE-IUCAKERBSA-N

$$$$
75562
     RDKit          3D

 15 16  0  0  0  0  0  0  0  0999 V2000
  -18.5421  -45.2926  -21.7371 N   0  0  0  0  0  0  0  0  0  0  0  0
  -18.3872  -44.5899  -23.0140 C   0  0  0  0  0  0  0  0  0  0  0  0
  -17.2415  -43.5854  -22.9038 C   0  0  2  0  0  0  0  0  0  0  0  0
  -16.7595  -42.9512  -24.1927 C   0  0  0  0  0  0  0  0  0  0  0  0
  -15.3212  -42.5635  -23.8564 C   0  0  1  0  0  0  0  0  0  0  0  0
  -15.1889  -41.0828  -23.4920 C   0  0  0  0  0  0  0  0  0  0  0  0
  -14.6319  -40.2380  -24.5428 N   0  0  0  0  0  0  0  0  0  0  0  0
  -15.4160  -40.0899  -25.7608 C   0  0  0  0  0  0  0  0  0  0  0  0
  -16.5243  -39.0853  -25.7234 C   0  0  0  0  0  0  0  0  0  0  0  0
  -17.3229  -38.7259  -26.7921 C   0  0  0  0  0  0  0  0  0  0  0  0
  -18.3329  -37.8138  -26.5433 N   0  0  0  0  0  0  0  0  0  0  0  0
  -18.2146  -37.4071  -25.2957 C   0  0  0  0  0  0  0  0  0  0  0  0
  -16.9789  -38.1451  -24.3662 S   0  0  0  0  0  0  0  0  0  0  0  0
  -14.9508  -43.4644  -22.6783 C   0  0  0  0  0  0  0  0  0  0  0  0
  -16.0936  -44.2562  -22.3650 O   0  0  0  0  0  0  0  0  0  0  0  0
  1  2  1  0
  3  2  1  6
  3  4  1  0
  4  5  1  0
  5  6  1  1
  6  7  1  0
  7  8  1  0
  8  9  1  0
  9 10  2  0
 10 11  1  0
 11 12  2  0
 12 13  1  0
  5 14  1  0
 14 15  1  0
 15  3  1  0
 13  9  1  0
M  END
>  <fragmenstein_mode>  (159) 
expansion

>  <original SMILES>  (159) 
NC[C@@H]1C[C@@H](CNCc2cncs2)CO1

>  <fragmenstein_outcome>  (159) 
acceptable

>  <energy_score>  (159) 
-101.231071

>  <tags>  (159) 
['Fragmenstein placed']

>  <original ID>  (159) 
ROUNVNLNYKULJE-IUCAKERBSA-N

>  <alias>  (159) 
None

>  <ref_mols>  (159) 
d0254a,d0615b

>  <HIPPO Pose ID>  (159) 
75562

>  <ref_pdb>  (159) 
d0615b

>  <scratch_subdir>  (159) 
/opt/xchem-fragalysis-2/maxwin/BulkDock/SCRATCH/217035/C23087-P51

>  <HIPPO Compound ID>  (159) 
23087

>  <exports>  (159) 
['/opt/xchem-fragalysis-2/maxwin/BulkDock/OUTPUTS/RdRp_knitwork_primer_grip_n_pocket_pure_split1800_batch001_217035.sdf']

>  <fragmenstein_runtime>  (159) 
2.263562

>  <fragmenstein_error>  (159) 
None

>  <distance_score>  (159) 
0.957126

>  <csv_name>  (159) 
RdRp_knitwork_primer_grip_n_pocket_pure_split1800_batch001.csv

>  <inchikey>  (159) 
ROUNVNLNYKULJE-IUCAKERBSA-N

>  <SLURM_JOB_NAME>  (159) 
BulkDock.place:Flavi_NS5_RdRp:RdRp_knitwork_primer_grip_n_pocket_pure_split1800_batch001

>  <SLURM_JOB_ID>  (159) 
217035

>  <name>  (159) 
ROUNVNLNYKULJE-IUCAKERBSA-N

$$$$
76379
     RDKit          3D

 23 26  0  0  0  0  0  0  0  0999 V2000
  -20.6086  -44.5417  -17.6488 O   0  0  0  0  0  0  0  0  0  0  0  0
  -20.1405  -43.6295  -18.6735 S   0  0  0  0  0  0  0  0  0  0  0  0
  -19.2231  -42.5620  -18.3321 O   0  0  0  0  0  0  0  0  0  0  0  0
  -21.5757  -42.9023  -19.3951 C   0  0  0  0  0  0  0  0  0  0  0  0
  -22.8254  -43.5163  -19.2931 C   0  0  0  0  0  0  0  0  0  0  0  0
  -23.9606  -42.8089  -19.6797 C   0  0  0  0  0  0  0  0  0  0  0  0
  -23.7993  -41.5107  -20.1398 C   0  0  0  0  0  0  0  0  0  0  0  0
  -22.6011  -40.8985  -20.2674 N   0  0  0  0  0  0  0  0  0  0  0  0
  -21.5130  -41.6012  -19.8628 C   0  0  0  0  0  0  0  0  0  0  0  0
  -19.3909  -44.5832  -19.8962 N   0  0  0  0  0  0  0  0  0  0  0  0
  -18.8086  -43.8200  -21.0587 C   0  0  0  0  0  0  0  0  0  0  0  0
  -17.7367  -44.6151  -21.8791 C   0  0  2  0  0  0  0  0  0  0  0  0
  -18.3090  -45.8742  -22.5038 C   0  0  0  0  0  0  0  0  0  0  0  0
  -18.2538  -46.9048  -21.3833 C   0  0  0  0  0  0  0  0  0  0  0  0
  -17.4522  -46.2113  -20.2736 C   0  0  2  0  0  0  0  0  0  0  0  0
  -18.4050  -45.5379  -19.2607 C   0  0  0  0  0  0  0  0  0  0  0  0
  -16.6742  -45.2517  -21.0712 N   0  0  0  0  0  0  0  0  0  0  0  0
  -15.7954  -44.2942  -20.3895 C   0  0  0  0  0  0  0  0  0  0  0  0
  -14.8362  -43.6707  -21.4187 C   0  0  0  0  0  0  0  0  0  0  0  0
  -13.9624  -42.5886  -20.7857 C   0  0  0  0  0  0  0  0  0  0  0  0
  -13.7549  -42.7512  -19.3475 N   0  0  0  0  0  0  0  0  0  0  0  0
  -13.6659  -44.1538  -18.9836 C   0  0  0  0  0  0  0  0  0  0  0  0
  -14.9656  -44.9158  -19.2493 C   0  0  0  0  0  0  0  0  0  0  0  0
  1  2  2  0
  2  3  2  0
  2  4  1  0
  4  5  2  0
  5  6  1  0
  6  7  2  0
  7  8  1  0
  8  9  2  0
  2 10  1  0
 10 11  1  0
 12 11  1  1
 12 13  1  0
 13 14  1  0
 15 14  1  6
 15 16  1  0
 15 17  1  0
 17 18  1  0
 18 19  1  0
 19 20  1  0
 20 21  1  0
 21 22  1  0
 22 23  1  0
  9  4  1  0
 16 10  1  0
 23 18  1  0
 17 12  1  0
M  END
>  <fragmenstein_mode>  (160) 
expansion

>  <original SMILES>  (160) 
O=S(=O)(c1cccnc1)N1C[C@H]2CC[C@@H](C1)N2C1CCNCC1

>  <fragmenstein_outcome>  (160) 
acceptable

>  <energy_score>  (160) 
-54.460755

>  <tags>  (160) 
['Fragmenstein placed']

>  <original ID>  (160) 
QTGZOLSVQNYTNC-GASCZTMLSA-N

>  <alias>  (160) 
None

>  <ref_mols>  (160) 
d0472a,z0193a

>  <HIPPO Pose ID>  (160) 
76379

>  <ref_pdb>  (160) 
d0472a

>  <scratch_subdir>  (160) 
/opt/xchem-fragalysis-2/maxwin/BulkDock/SCRATCH/217043/C20986-P42

>  <HIPPO Compound ID>  (160) 
20986

>  <exports>  (160) 
['/opt/xchem-fragalysis-2/maxwin/BulkDock/OUTPUTS/RdRp_knitwork_primer_grip_n_pocket_pure_split1800_batch009_217043.sdf']

>  <fragmenstein_runtime>  (160) 
7.096061

>  <fragmenstein_error>  (160) 
None

>  <distance_score>  (160) 
0.889088

>  <csv_name>  (160) 
RdRp_knitwork_primer_grip_n_pocket_pure_split1800_batch009.csv

>  <inchikey>  (160) 
QTGZOLSVQNYTNC-GASCZTMLSA-N

>  <SLURM_JOB_NAME>  (160) 
BulkDock.place:Flavi_NS5_RdRp:RdRp_knitwork_primer_grip_n_pocket_pure_split1800_batch009

>  <SLURM_JOB_ID>  (160) 
217043

>  <name>  (160) 
QTGZOLSVQNYTNC-GASCZTMLSA-N

$$$$
76550
     RDKit          3D

 21 24  0  0  0  0  0  0  0  0999 V2000
  -17.4653  -42.1219  -26.0334 C   0  0  0  0  0  0  0  0  0  0  0  0
  -16.6605  -41.9805  -24.9169 C   0  0  0  0  0  0  0  0  0  0  0  0
  -15.6963  -40.9801  -24.9180 C   0  0  0  0  0  0  0  0  0  0  0  0
  -14.9600  -40.8852  -23.7704 O   0  0  0  0  0  0  0  0  0  0  0  0
  -14.4974  -39.5853  -23.4164 C   0  0  2  0  0  0  0  0  0  0  0  0
  -13.6927  -39.6907  -22.1245 C   0  0  0  0  0  0  0  0  0  0  0  0
  -13.7225  -38.2771  -21.5603 C   0  0  0  0  0  0  0  0  0  0  0  0
  -14.9951  -37.7340  -22.0259 N   0  0  0  0  0  0  0  0  0  0  0  0
  -15.6232  -36.7478  -21.2991 C   0  0  0  0  0  0  0  0  0  0  0  0
  -14.8976  -36.1578  -20.3089 N   0  0  0  0  0  0  0  0  0  0  0  0
  -15.4368  -35.1901  -19.5592 C   0  0  0  0  0  0  0  0  0  0  0  0
  -16.6600  -34.6775  -19.6585 N   0  0  0  0  0  0  0  0  0  0  0  0
  -17.4029  -35.2311  -20.6469 C   0  0  0  0  0  0  0  0  0  0  0  0
  -18.7390  -34.8298  -20.9473 C   0  0  0  0  0  0  0  0  0  0  0  0
  -19.2738  -35.5329  -21.9976 C   0  0  0  0  0  0  0  0  0  0  0  0
  -18.1739  -36.6753  -22.6152 S   0  0  0  0  0  0  0  0  0  0  0  0
  -16.9366  -36.2527  -21.4807 C   0  0  0  0  0  0  0  0  0  0  0  0
  -15.6165  -38.6082  -23.0136 C   0  0  0  0  0  0  0  0  0  0  0  0
  -15.5366  -40.1950  -26.0519 C   0  0  0  0  0  0  0  0  0  0  0  0
  -16.3796  -40.4305  -27.1296 C   0  0  0  0  0  0  0  0  0  0  0  0
  -17.3572  -41.3654  -27.1466 N   0  0  0  0  0  0  0  0  0  0  0  0
  1  2  2  0
  2  3  1  0
  3  4  1  0
  5  4  1  1
  5  6  1  0
  6  7  1  0
  7  8  1  0
  8  9  1  0
  9 10  2  0
 10 11  1  0
 11 12  2  0
 12 13  1  0
 13 14  1  0
 14 15  2  0
 15 16  1  0
 16 17  1  0
  8 18  1  0
  3 19  2  0
 19 20  1  0
 20 21  2  0
 21  1  1  0
 18  5  1  0
 17  9  1  0
 17 13  2  0
M  END
>  <fragmenstein_mode>  (161) 
expansion

>  <original SMILES>  (161) 
c1cc(O[C@@H]2CCN(c3ncnc4ccsc34)C2)ccn1

>  <fragmenstein_outcome>  (161) 
acceptable

>  <energy_score>  (161) 
-52.801409

>  <tags>  (161) 
['Fragmenstein placed']

>  <original ID>  (161) 
YJYVHQCEAAVCOQ-GFCCVEGCSA-N

>  <alias>  (161) 
None

>  <ref_mols>  (161) 
d0160a,d0866a

>  <HIPPO Pose ID>  (161) 
76550

>  <ref_pdb>  (161) 
d0160a

>  <scratch_subdir>  (161) 
/opt/xchem-fragalysis-2/maxwin/BulkDock/SCRATCH/217039/C26465-P12

>  <HIPPO Compound ID>  (161) 
26465

>  <exports>  (161) 
['/opt/xchem-fragalysis-2/maxwin/BulkDock/OUTPUTS/RdRp_knitwork_primer_grip_n_pocket_pure_split1800_batch005_217039.sdf']

>  <fragmenstein_runtime>  (161) 
3.641854

>  <fragmenstein_error>  (161) 
None

>  <distance_score>  (161) 
0.845918

>  <csv_name>  (161) 
RdRp_knitwork_primer_grip_n_pocket_pure_split1800_batch005.csv

>  <inchikey>  (161) 
YJYVHQCEAAVCOQ-GFCCVEGCSA-N

>  <SLURM_JOB_NAME>  (161) 
BulkDock.place:Flavi_NS5_RdRp:RdRp_knitwork_primer_grip_n_pocket_pure_split1800_batch005

>  <SLURM_JOB_ID>  (161) 
217039

>  <name>  (161) 
YJYVHQCEAAVCOQ-GFCCVEGCSA-N

$$$$
78012
     RDKit          3D

 18 19  0  0  0  0  0  0  0  0999 V2000
  -15.5085  -44.0921  -22.3959 N   0  0  0  0  0  0  0  0  0  0  0  0
  -15.5031  -43.1140  -23.0180 C   0  0  0  0  0  0  0  0  0  0  0  0
  -15.5726  -41.8945  -23.7311 C   0  0  0  0  0  0  0  0  0  0  0  0
  -16.0613  -41.6724  -24.9972 C   0  0  0  0  0  0  0  0  0  0  0  0
  -15.9291  -40.2835  -25.2827 C   0  0  0  0  0  0  0  0  0  0  0  0
  -16.3508  -39.6373  -26.5271 C   0  0  0  0  0  0  0  0  0  0  0  0
  -16.2173  -40.2171  -27.5971 O   0  0  0  0  0  0  0  0  0  0  0  0
  -16.9569  -38.4084  -26.4521 O   0  0  0  0  0  0  0  0  0  0  0  0
  -17.4764  -37.9410  -25.1953 C   0  0  0  0  0  0  0  0  0  0  0  0
  -18.4888  -36.8214  -25.4353 C   0  0  0  0  0  0  0  0  0  0  0  0
  -19.1915  -36.3400  -24.2316 N   0  0  0  0  0  0  0  0  0  0  0  0
  -20.0654  -35.2013  -24.5732 C   0  0  0  0  0  0  0  0  0  0  0  0
  -20.3663  -34.2504  -23.4064 C   0  0  0  0  0  0  0  0  0  0  0  0
  -20.4260  -34.9969  -22.0870 C   0  0  0  0  0  0  0  0  0  0  0  0
  -19.1207  -35.7456  -21.8364 C   0  0  0  0  0  0  0  0  0  0  0  0
  -18.3111  -36.0094  -23.1107 C   0  0  0  0  0  0  0  0  0  0  0  0
  -15.2865  -39.7296  -24.1855 C   0  0  0  0  0  0  0  0  0  0  0  0
  -15.1467  -40.6989  -23.2268 N   0  0  0  0  0  0  0  0  0  0  0  0
  1  2  3  0
  2  3  1  0
  3  4  2  0
  4  5  1  0
  5  6  1  0
  6  7  2  0
  6  8  1  0
  8  9  1  0
  9 10  1  0
 10 11  1  0
 11 12  1  0
 12 13  1  0
 13 14  1  0
 14 15  1  0
 15 16  1  0
  5 17  2  0
 17 18  1  0
 18  3  1  0
 16 11  1  0
M  END
>  <fragmenstein_mode>  (162) 
expansion

>  <original SMILES>  (162) 
N#Cc1cc(C(=O)OCCN2CCCCC2)c[nH]1

>  <fragmenstein_outcome>  (162) 
acceptable

>  <energy_score>  (162) 
-29.207815

>  <tags>  (162) 
['Fragmenstein placed']

>  <original ID>  (162) 
KUUOTEMBQDIXRU-UHFFFAOYSA-N

>  <alias>  (162) 
None

>  <ref_mols>  (162) 
d0472a,d0866a

>  <HIPPO Pose ID>  (162) 
78012

>  <ref_pdb>  (162) 
d0472a

>  <scratch_subdir>  (162) 
/opt/xchem-fragalysis-2/maxwin/BulkDock/SCRATCH/217044/C19378-P42

>  <HIPPO Compound ID>  (162) 
19378

>  <exports>  (162) 
['/opt/xchem-fragalysis-2/maxwin/BulkDock/OUTPUTS/RdRp_knitwork_primer_grip_n_pocket_pure_split1800_batch010_217044.sdf']

>  <fragmenstein_runtime>  (162) 
17.860289

>  <fragmenstein_error>  (162) 
None

>  <distance_score>  (162) 
0.911206

>  <csv_name>  (162) 
RdRp_knitwork_primer_grip_n_pocket_pure_split1800_batch010.csv

>  <inchikey>  (162) 
KUUOTEMBQDIXRU-UHFFFAOYSA-N

>  <SLURM_JOB_NAME>  (162) 
BulkDock.place:Flavi_NS5_RdRp:RdRp_knitwork_primer_grip_n_pocket_pure_split1800_batch010

>  <SLURM_JOB_ID>  (162) 
217044

>  <name>  (162) 
KUUOTEMBQDIXRU-UHFFFAOYSA-N

$$$$
78015
     RDKit          3D

 18 19  0  0  0  0  0  0  0  0999 V2000
  -15.5992  -43.9436  -22.4954 N   0  0  0  0  0  0  0  0  0  0  0  0
  -15.5362  -42.9737  -23.1276 C   0  0  0  0  0  0  0  0  0  0  0  0
  -15.5283  -41.7416  -23.8235 C   0  0  0  0  0  0  0  0  0  0  0  0
  -15.9097  -41.4751  -25.1191 C   0  0  0  0  0  0  0  0  0  0  0  0
  -15.7333  -40.0800  -25.3483 C   0  0  0  0  0  0  0  0  0  0  0  0
  -16.0472  -39.3706  -26.5900 C   0  0  0  0  0  0  0  0  0  0  0  0
  -15.6666  -39.7957  -27.6707 O   0  0  0  0  0  0  0  0  0  0  0  0
  -16.8328  -38.2429  -26.5173 O   0  0  0  0  0  0  0  0  0  0  0  0
  -17.4265  -37.8834  -25.2638 C   0  0  0  0  0  0  0  0  0  0  0  0
  -18.5011  -36.8158  -25.4645 C   0  0  0  0  0  0  0  0  0  0  0  0
  -19.2349  -36.4776  -24.2335 N   0  0  0  0  0  0  0  0  0  0  0  0
  -20.2245  -35.4167  -24.4611 C   0  0  0  0  0  0  0  0  0  0  0  0
  -20.0372  -34.1699  -23.5964 C   0  0  0  0  0  0  0  0  0  0  0  0
  -19.9442  -34.5047  -22.1156 C   0  0  0  0  0  0  0  0  0  0  0  0
  -19.1524  -35.7772  -21.8600 C   0  0  0  0  0  0  0  0  0  0  0  0
  -18.3587  -36.2221  -23.0823 C   0  0  0  0  0  0  0  0  0  0  0  0
  -15.1748  -39.5676  -24.1862 C   0  0  0  0  0  0  0  0  0  0  0  0
  -15.1198  -40.5688  -23.2530 N   0  0  0  0  0  0  0  0  0  0  0  0
  1  2  3  0
  2  3  1  0
  3  4  2  0
  4  5  1  0
  5  6  1  0
  6  7  2  0
  6  8  1  0
  8  9  1  0
  9 10  1  0
 10 11  1  0
 11 12  1  0
 12 13  1  0
 13 14  1  0
 14 15  1  0
 15 16  1  0
  5 17  2  0
 17 18  1  0
 18  3  1  0
 16 11  1  0
M  END
>  <fragmenstein_mode>  (163) 
expansion

>  <original SMILES>  (163) 
N#Cc1cc(C(=O)OCCN2CCCCC2)c[nH]1

>  <fragmenstein_outcome>  (163) 
acceptable

>  <energy_score>  (163) 
-27.727933

>  <tags>  (163) 
['Fragmenstein placed']

>  <original ID>  (163) 
KUUOTEMBQDIXRU-UHFFFAOYSA-N

>  <alias>  (163) 
None

>  <ref_mols>  (163) 
d0472a,d0866a

>  <HIPPO Pose ID>  (163) 
78015

>  <ref_pdb>  (163) 
d0866a

>  <scratch_subdir>  (163) 
/opt/xchem-fragalysis-2/maxwin/BulkDock/SCRATCH/217044/C19378-P68

>  <HIPPO Compound ID>  (163) 
19378

>  <exports>  (163) 
['/opt/xchem-fragalysis-2/maxwin/BulkDock/OUTPUTS/RdRp_knitwork_primer_grip_n_pocket_pure_split1800_batch010_217044.sdf']

>  <fragmenstein_runtime>  (163) 
17.32491

>  <fragmenstein_error>  (163) 
None

>  <distance_score>  (163) 
0.86679

>  <csv_name>  (163) 
RdRp_knitwork_primer_grip_n_pocket_pure_split1800_batch010.csv

>  <inchikey>  (163) 
KUUOTEMBQDIXRU-UHFFFAOYSA-N

>  <SLURM_JOB_NAME>  (163) 
BulkDock.place:Flavi_NS5_RdRp:RdRp_knitwork_primer_grip_n_pocket_pure_split1800_batch010

>  <SLURM_JOB_ID>  (163) 
217044

>  <name>  (163) 
KUUOTEMBQDIXRU-UHFFFAOYSA-N

$$$$
80342
     RDKit          3D

 22 23  0  0  0  0  0  0  0  0999 V2000
  -14.5718  -40.0314  -25.9273 O   0  0  0  0  0  0  0  0  0  0  0  0
  -15.1951  -40.5804  -25.1152 C   0  0  0  0  0  0  0  0  0  0  0  0
  -16.5233  -41.3301  -25.2235 N   0  0  0  0  0  0  0  0  0  0  0  0
  -17.4299  -41.4876  -26.3485 C   0  0  2  0  0  0  0  0  0  0  0  0
  -17.0251  -40.6106  -27.5502 C   0  0  0  0  0  0  0  0  0  0  0  0
  -16.7430  -39.2607  -27.1909 O   0  0  0  0  0  0  0  0  0  0  0  0
  -18.9287  -41.3147  -25.9636 C   0  0  0  0  0  0  0  0  0  0  0  0
  -19.5053  -39.9592  -25.9689 N   0  0  0  0  0  0  0  0  0  0  0  0
  -20.9738  -40.0130  -25.8548 C   0  0  0  0  0  0  0  0  0  0  0  0
  -21.5756  -38.6759  -25.4302 C   0  0  0  0  0  0  0  0  0  0  0  0
  -21.0851  -38.2824  -24.0376 C   0  0  0  0  0  0  0  0  0  0  0  0
  -19.7143  -38.8828  -23.7250 C   0  0  0  0  0  0  0  0  0  0  0  0
  -18.8883  -39.0510  -24.9959 C   0  0  0  0  0  0  0  0  0  0  0  0
  -14.7373  -40.5081  -23.7488 C   0  0  0  0  0  0  0  0  0  0  0  0
  -14.0911  -39.3778  -23.3269 N   0  0  0  0  0  0  0  0  0  0  0  0
  -13.6457  -39.4424  -22.0634 N   0  0  0  0  0  0  0  0  0  0  0  0
  -14.0003  -40.6690  -21.6733 C   0  0  0  0  0  0  0  0  0  0  0  0
  -14.6940  -41.3867  -22.6757 C   0  0  0  0  0  0  0  0  0  0  0  0
  -15.1719  -42.7793  -22.5855 C   0  0  0  0  0  0  0  0  0  0  0  0
  -15.0292  -43.3140  -21.3487 F   0  0  0  0  0  0  0  0  0  0  0  0
  -16.5025  -42.8398  -22.8798 F   0  0  0  0  0  0  0  0  0  0  0  0
  -14.5529  -43.5983  -23.4658 F   0  0  0  0  0  0  0  0  0  0  0  0
  1  2  2  0
  2  3  1  0
  3  4  1  0
  4  5  1  6
  5  6  1  0
  4  7  1  0
  7  8  1  0
  8  9  1  0
  9 10  1  0
 10 11  1  0
 11 12  1  0
 12 13  1  0
  2 14  1  0
 14 15  1  0
 15 16  1  0
 16 17  2  0
 17 18  1  0
 18 19  1  0
 19 20  1  0
 19 21  1  0
 19 22  1  0
 13  8  1  0
 18 14  2  0
M  END
>  <fragmenstein_mode>  (164) 
expansion

>  <original SMILES>  (164) 
O=C(N[C@H](CO)CN1CCCCC1)c1[nH]ncc1C(F)(F)F

>  <fragmenstein_outcome>  (164) 
acceptable

>  <energy_score>  (164) 
-34.393185

>  <tags>  (164) 
['Fragmenstein placed']

>  <original ID>  (164) 
RHSMPJRYUSHPSC-VIFPVBQESA-N

>  <alias>  (164) 
None

>  <ref_mols>  (164) 
d0160a,d0851a

>  <HIPPO Pose ID>  (164) 
80342

>  <ref_pdb>  (164) 
d0851a

>  <scratch_subdir>  (164) 
/opt/xchem-fragalysis-2/maxwin/BulkDock/SCRATCH/217036/C23381-P66

>  <HIPPO Compound ID>  (164) 
23381

>  <exports>  (164) 
['/opt/xchem-fragalysis-2/maxwin/BulkDock/OUTPUTS/RdRp_knitwork_primer_grip_n_pocket_pure_split1800_batch002_217036.sdf']

>  <fragmenstein_runtime>  (164) 
6.091508

>  <fragmenstein_error>  (164) 
None

>  <distance_score>  (164) 
0.94456

>  <csv_name>  (164) 
RdRp_knitwork_primer_grip_n_pocket_pure_split1800_batch002.csv

>  <inchikey>  (164) 
RHSMPJRYUSHPSC-VIFPVBQESA-N

>  <SLURM_JOB_NAME>  (164) 
BulkDock.place:Flavi_NS5_RdRp:RdRp_knitwork_primer_grip_n_pocket_pure_split1800_batch002

>  <SLURM_JOB_ID>  (164) 
217036

>  <name>  (164) 
RHSMPJRYUSHPSC-VIFPVBQESA-N

$$$$
80857
     RDKit          3D

 23 25  0  0  0  0  0  0  0  0999 V2000
  -17.1191  -39.8490  -22.3659 C   0  0  0  0  0  0  0  0  0  0  0  0
  -17.5673  -40.9061  -23.3885 C   0  0  2  0  0  0  0  0  0  0  0  0
  -18.4922  -41.9445  -22.7176 C   0  0  0  0  0  0  0  0  0  0  0  0
  -17.7893  -42.8371  -21.6932 C   0  0  0  0  0  0  0  0  0  0  0  0
  -17.2008  -42.3955  -20.7856 O   0  0  0  0  0  0  0  0  0  0  0  0
  -18.0544  -44.3163  -22.0998 N   0  0  0  0  0  0  0  0  0  0  0  0
  -17.5931  -45.4857  -21.5531 C   0  0  0  0  0  0  0  0  0  0  0  0
  -18.1258  -46.7032  -21.8703 C   0  0  0  0  0  0  0  0  0  0  0  0
  -17.5461  -47.6047  -21.0389 N   0  0  0  0  0  0  0  0  0  0  0  0
  -16.5075  -47.1143  -20.3531 N   0  0  0  0  0  0  0  0  0  0  0  0
  -16.5322  -45.7891  -20.6411 C   0  0  0  0  0  0  0  0  0  0  0  0
  -15.4917  -44.8855  -20.1560 C   0  0  0  0  0  0  0  0  0  0  0  0
  -14.7585  -44.1266  -21.0678 C   0  0  0  0  0  0  0  0  0  0  0  0
  -13.7592  -43.2915  -20.5874 C   0  0  0  0  0  0  0  0  0  0  0  0
  -13.5160  -43.2434  -19.2235 C   0  0  0  0  0  0  0  0  0  0  0  0
  -14.2866  -44.0394  -18.3921 C   0  0  0  0  0  0  0  0  0  0  0  0
  -15.2539  -44.8775  -18.8201 N   0  0  0  0  0  0  0  0  0  0  0  0
  -16.3672  -41.5518  -24.1558 C   0  0  0  0  0  0  0  0  0  0  0  0
  -15.3748  -40.5122  -24.6994 C   0  0  0  0  0  0  0  0  0  0  0  0
  -16.0139  -39.6198  -25.7695 C   0  0  0  0  0  0  0  0  0  0  0  0
  -16.9720  -40.3225  -26.6420 N   0  0  0  0  0  0  0  0  0  0  0  0
  -16.6694  -41.7486  -26.7088 C   0  0  0  0  0  0  0  0  0  0  0  0
  -16.8237  -42.4337  -25.3449 C   0  0  0  0  0  0  0  0  0  0  0  0
  2  1  1  1
  2  3  1  0
  3  4  1  0
  4  5  2  0
  4  6  1  0
  6  7  1  0
  7  8  2  0
  8  9  1  0
  9 10  1  0
 10 11  2  0
 11 12  1  0
 12 13  2  0
 13 14  1  0
 14 15  2  0
 15 16  1  0
 16 17  2  0
  2 18  1  0
 18 19  1  0
 19 20  1  0
 20 21  1  0
 21 22  1  0
 22 23  1  0
 11  7  1  0
 17 12  1  0
 23 18  1  0
M  END
>  <fragmenstein_mode>  (165) 
expansion

>  <original SMILES>  (165) 
C[C@H](CC(=O)Nc1c[nH]nc1-c1ccccn1)C1CCNCC1

>  <fragmenstein_outcome>  (165) 
acceptable

>  <energy_score>  (165) 
-54.795659

>  <tags>  (165) 
['Fragmenstein placed']

>  <original ID>  (165) 
GVDCPXLSWPNOSL-GFCCVEGCSA-N

>  <alias>  (165) 
None

>  <ref_mols>  (165) 
d0472a,d0851a

>  <HIPPO Pose ID>  (165) 
80857

>  <ref_pdb>  (165) 
d0851a

>  <scratch_subdir>  (165) 
/opt/xchem-fragalysis-2/maxwin/BulkDock/SCRATCH/217036/C15716-P66

>  <HIPPO Compound ID>  (165) 
15716

>  <exports>  (165) 
['/opt/xchem-fragalysis-2/maxwin/BulkDock/OUTPUTS/RdRp_knitwork_primer_grip_n_pocket_pure_split1800_batch002_217036.sdf']

>  <fragmenstein_runtime>  (165) 
9.444357

>  <fragmenstein_error>  (165) 
None

>  <distance_score>  (165) 
0.982923

>  <csv_name>  (165) 
RdRp_knitwork_primer_grip_n_pocket_pure_split1800_batch002.csv

>  <inchikey>  (165) 
GVDCPXLSWPNOSL-GFCCVEGCSA-N

>  <SLURM_JOB_NAME>  (165) 
BulkDock.place:Flavi_NS5_RdRp:RdRp_knitwork_primer_grip_n_pocket_pure_split1800_batch002

>  <SLURM_JOB_ID>  (165) 
217036

>  <name>  (165) 
GVDCPXLSWPNOSL-GFCCVEGCSA-N

$$$$
83145
     RDKit          3D

 21 22  0  0  0  0  0  0  0  0999 V2000
  -12.2610  -35.5954  -20.9905 C   0  0  0  0  0  0  0  0  0  0  0  0
  -11.5824  -36.5372  -20.0283 N   0  0  0  0  0  0  0  0  0  0  0  0
  -11.6368  -35.3078  -19.1838 C   0  0  0  0  0  0  0  0  0  0  0  0
  -12.3427  -37.8518  -19.9150 C   0  0  0  0  0  0  0  0  0  0  0  0
  -13.2071  -38.1709  -19.1815 O   0  0  0  0  0  0  0  0  0  0  0  0
  -11.7465  -38.7947  -20.9480 C   0  0  0  0  0  0  0  0  0  0  0  0
  -12.7791  -39.3420  -21.8076 N   0  0  0  0  0  0  0  0  0  0  0  0
  -13.2703  -40.6165  -21.7805 C   0  0  0  0  0  0  0  0  0  0  0  0
  -14.1999  -40.6971  -22.7902 C   0  0  0  0  0  0  0  0  0  0  0  0
  -14.9253  -41.8400  -23.1562 N   0  0  0  0  0  0  0  0  0  0  0  0
  -16.5751  -41.7570  -23.4652 S   0  0  0  0  0  0  0  0  0  0  0  0
  -17.2038  -41.2100  -22.2853 O   0  0  0  0  0  0  0  0  0  0  0  0
  -16.9903  -43.0323  -24.0016 O   0  0  0  0  0  0  0  0  0  0  0  0
  -16.6271  -40.6205  -24.6962 N   0  0  0  0  0  0  0  0  0  0  0  0
  -16.1896  -41.1092  -26.0237 C   0  0  0  0  0  0  0  0  0  0  0  0
  -15.8298  -39.9175  -26.8920 C   0  0  0  0  0  0  0  0  0  0  0  0
  -16.9550  -38.8923  -26.9583 C   0  0  0  0  0  0  0  0  0  0  0  0
  -17.4957  -38.5266  -25.5815 C   0  0  0  0  0  0  0  0  0  0  0  0
  -17.8361  -39.7770  -24.7744 C   0  0  0  0  0  0  0  0  0  0  0  0
  -14.1783  -39.4120  -23.3768 C   0  0  0  0  0  0  0  0  0  0  0  0
  -13.2661  -38.6007  -22.8275 N   0  0  0  0  0  0  0  0  0  0  0  0
  1  2  1  0
  2  3  1  0
  2  4  1  0
  4  5  2  0
  4  6  1  0
  6  7  1  0
  7  8  1  0
  8  9  2  0
  9 10  1  0
 10 11  1  0
 11 12  2  0
 11 13  2  0
 11 14  1  0
 14 15  1  0
 15 16  1  0
 16 17  1  0
 17 18  1  0
 18 19  1  0
  9 20  1  0
 20 21  2  0
 21  7  1  0
 19 14  1  0
M  END
>  <fragmenstein_mode>  (166) 
expansion

>  <original SMILES>  (166) 
CN(C)C(=O)Cn1cc(NS(=O)(=O)N2CCCCC2)cn1

>  <fragmenstein_outcome>  (166) 
acceptable

>  <energy_score>  (166) 
-19.330837

>  <tags>  (166) 
['Fragmenstein placed']

>  <original ID>  (166) 
NKVIYNZLCNNVKG-UHFFFAOYSA-N

>  <alias>  (166) 
None

>  <ref_mols>  (166) 
d0160a,d0866a

>  <HIPPO Pose ID>  (166) 
83145

>  <ref_pdb>  (166) 
d0160a

>  <scratch_subdir>  (166) 
/opt/xchem-fragalysis-2/maxwin/BulkDock/SCRATCH/217034/C23248-P12

>  <HIPPO Compound ID>  (166) 
23248

>  <exports>  (166) 
['/opt/xchem-fragalysis-2/maxwin/BulkDock/OUTPUTS/RdRp_knitwork_primer_grip_n_pocket_pure_split1800_batch000_217034.sdf']

>  <fragmenstein_runtime>  (166) 
4.49684

>  <fragmenstein_error>  (166) 
None

>  <distance_score>  (166) 
0.742683

>  <csv_name>  (166) 
RdRp_knitwork_primer_grip_n_pocket_pure_split1800_batch000.csv

>  <inchikey>  (166) 
NKVIYNZLCNNVKG-UHFFFAOYSA-N

>  <SLURM_JOB_NAME>  (166) 
BulkDock.place:Flavi_NS5_RdRp:RdRp_knitwork_primer_grip_n_pocket_pure_split1800_batch000

>  <SLURM_JOB_ID>  (166) 
217034

>  <name>  (166) 
NKVIYNZLCNNVKG-UHFFFAOYSA-N

$$$$
83146
     RDKit          3D

 21 22  0  0  0  0  0  0  0  0999 V2000
  -12.0687  -35.5645  -20.8845 C   0  0  0  0  0  0  0  0  0  0  0  0
  -11.3381  -36.5374  -19.9934 N   0  0  0  0  0  0  0  0  0  0  0  0
  -11.3454  -35.3379  -19.1066 C   0  0  0  0  0  0  0  0  0  0  0  0
  -12.0915  -37.8562  -19.8827 C   0  0  0  0  0  0  0  0  0  0  0  0
  -12.9143  -38.2014  -19.1138 O   0  0  0  0  0  0  0  0  0  0  0  0
  -11.5603  -38.7609  -20.9839 C   0  0  0  0  0  0  0  0  0  0  0  0
  -12.6456  -39.2707  -21.8006 N   0  0  0  0  0  0  0  0  0  0  0  0
  -13.1505  -40.5397  -21.7864 C   0  0  0  0  0  0  0  0  0  0  0  0
  -14.1240  -40.5824  -22.7564 C   0  0  0  0  0  0  0  0  0  0  0  0
  -14.8673  -41.7132  -23.1217 N   0  0  0  0  0  0  0  0  0  0  0  0
  -16.5061  -41.6144  -23.4638 S   0  0  0  0  0  0  0  0  0  0  0  0
  -17.1574  -41.0923  -22.2843 O   0  0  0  0  0  0  0  0  0  0  0  0
  -16.9195  -42.8785  -24.0288 O   0  0  0  0  0  0  0  0  0  0  0  0
  -16.5394  -40.4394  -24.6667 N   0  0  0  0  0  0  0  0  0  0  0  0
  -15.9701  -40.8758  -25.9689 C   0  0  0  0  0  0  0  0  0  0  0  0
  -15.7415  -39.6660  -26.8657 C   0  0  0  0  0  0  0  0  0  0  0  0
  -16.9852  -38.7947  -26.9999 C   0  0  0  0  0  0  0  0  0  0  0  0
  -17.5901  -38.4649  -25.6416 C   0  0  0  0  0  0  0  0  0  0  0  0
  -17.8287  -39.7370  -24.8328 C   0  0  0  0  0  0  0  0  0  0  0  0
  -14.1247  -39.2754  -23.2968 C   0  0  0  0  0  0  0  0  0  0  0  0
  -13.1852  -38.4885  -22.7597 N   0  0  0  0  0  0  0  0  0  0  0  0
  1  2  1  0
  2  3  1  0
  2  4  1  0
  4  5  2  0
  4  6  1  0
  6  7  1  0
  7  8  1  0
  8  9  2  0
  9 10  1  0
 10 11  1  0
 11 12  2  0
 11 13  2  0
 11 14  1  0
 14 15  1  0
 15 16  1  0
 16 17  1  0
 17 18  1  0
 18 19  1  0
  9 20  1  0
 20 21  2  0
 21  7  1  0
 19 14  1  0
M  END
>  <fragmenstein_mode>  (167) 
expansion

>  <original SMILES>  (167) 
CN(C)C(=O)Cn1cc(NS(=O)(=O)N2CCCCC2)cn1

>  <fragmenstein_outcome>  (167) 
acceptable

>  <energy_score>  (167) 
-20.466027

>  <tags>  (167) 
['Fragmenstein placed']

>  <original ID>  (167) 
NKVIYNZLCNNVKG-UHFFFAOYSA-N

>  <alias>  (167) 
None

>  <ref_mols>  (167) 
d0160a,d0866a

>  <HIPPO Pose ID>  (167) 
83146

>  <ref_pdb>  (167) 
d0866a

>  <scratch_subdir>  (167) 
/opt/xchem-fragalysis-2/maxwin/BulkDock/SCRATCH/217034/C23248-P68

>  <HIPPO Compound ID>  (167) 
23248

>  <exports>  (167) 
['/opt/xchem-fragalysis-2/maxwin/BulkDock/OUTPUTS/RdRp_knitwork_primer_grip_n_pocket_pure_split1800_batch000_217034.sdf']

>  <fragmenstein_runtime>  (167) 
4.629373

>  <fragmenstein_error>  (167) 
None

>  <distance_score>  (167) 
0.759189

>  <csv_name>  (167) 
RdRp_knitwork_primer_grip_n_pocket_pure_split1800_batch000.csv

>  <inchikey>  (167) 
NKVIYNZLCNNVKG-UHFFFAOYSA-N

>  <SLURM_JOB_NAME>  (167) 
BulkDock.place:Flavi_NS5_RdRp:RdRp_knitwork_primer_grip_n_pocket_pure_split1800_batch000

>  <SLURM_JOB_ID>  (167) 
217034

>  <name>  (167) 
NKVIYNZLCNNVKG-UHFFFAOYSA-N

$$$$
83147
     RDKit          3D

 21 22  0  0  0  0  0  0  0  0999 V2000
  -11.1542  -35.9746  -20.6392 C   0  0  0  0  0  0  0  0  0  0  0  0
  -11.1504  -37.4733  -20.5471 N   0  0  0  0  0  0  0  0  0  0  0  0
   -9.7646  -37.1870  -20.0752 C   0  0  0  0  0  0  0  0  0  0  0  0
  -11.6445  -38.1040  -21.8364 C   0  0  0  0  0  0  0  0  0  0  0  0
  -11.0516  -38.4400  -22.7953 O   0  0  0  0  0  0  0  0  0  0  0  0
  -13.1383  -38.3089  -21.6636 C   0  0  0  0  0  0  0  0  0  0  0  0
  -13.4653  -39.7071  -21.8195 N   0  0  0  0  0  0  0  0  0  0  0  0
  -13.0483  -40.7322  -21.0238 C   0  0  0  0  0  0  0  0  0  0  0  0
  -13.6174  -41.8646  -21.5508 C   0  0  0  0  0  0  0  0  0  0  0  0
  -14.3894  -41.4132  -22.6381 C   0  0  0  0  0  0  0  0  0  0  0  0
  -15.1059  -42.2543  -23.4699 N   0  0  0  0  0  0  0  0  0  0  0  0
  -16.6935  -41.8909  -23.8083 S   0  0  0  0  0  0  0  0  0  0  0  0
  -17.3641  -41.5437  -22.5739 O   0  0  0  0  0  0  0  0  0  0  0  0
  -17.2012  -42.9703  -24.6254 O   0  0  0  0  0  0  0  0  0  0  0  0
  -16.5319  -40.5372  -24.7552 N   0  0  0  0  0  0  0  0  0  0  0  0
  -15.6755  -40.6389  -25.9546 C   0  0  0  0  0  0  0  0  0  0  0  0
  -16.3988  -40.1096  -27.1720 C   0  0  0  0  0  0  0  0  0  0  0  0
  -16.8249  -38.6622  -26.9724 C   0  0  0  0  0  0  0  0  0  0  0  0
  -17.1892  -38.3271  -25.5306 C   0  0  0  0  0  0  0  0  0  0  0  0
  -17.6344  -39.5728  -24.7794 C   0  0  0  0  0  0  0  0  0  0  0  0
  -14.2954  -40.0934  -22.7970 N   0  0  0  0  0  0  0  0  0  0  0  0
  1  2  1  0
  2  3  1  0
  2  4  1  0
  4  5  2  0
  4  6  1  0
  6  7  1  0
  7  8  1  0
  8  9  2  0
  9 10  1  0
 10 11  1  0
 11 12  1  0
 12 13  2  0
 12 14  2  0
 12 15  1  0
 15 16  1  0
 16 17  1  0
 17 18  1  0
 18 19  1  0
 19 20  1  0
 10 21  2  0
 21  7  1  0
 20 15  1  0
M  END
>  <fragmenstein_mode>  (168) 
expansion

>  <original SMILES>  (168) 
CN(C)C(=O)Cn1ccc(NS(=O)(=O)N2CCCCC2)n1

>  <fragmenstein_outcome>  (168) 
acceptable

>  <energy_score>  (168) 
-3.626543

>  <tags>  (168) 
['Fragmenstein placed']

>  <original ID>  (168) 
CYTVGLIGRGDJAE-UHFFFAOYSA-N

>  <alias>  (168) 
None

>  <ref_mols>  (168) 
d0160a,d0866a

>  <HIPPO Pose ID>  (168) 
83147

>  <ref_pdb>  (168) 
d0160a

>  <scratch_subdir>  (168) 
/opt/xchem-fragalysis-2/maxwin/BulkDock/SCRATCH/217034/C23249-P12

>  <HIPPO Compound ID>  (168) 
23249

>  <exports>  (168) 
['/opt/xchem-fragalysis-2/maxwin/BulkDock/OUTPUTS/RdRp_knitwork_primer_grip_n_pocket_pure_split1800_batch000_217034.sdf']

>  <fragmenstein_runtime>  (168) 
5.616815

>  <fragmenstein_error>  (168) 
None

>  <distance_score>  (168) 
0.999777

>  <csv_name>  (168) 
RdRp_knitwork_primer_grip_n_pocket_pure_split1800_batch000.csv

>  <inchikey>  (168) 
CYTVGLIGRGDJAE-UHFFFAOYSA-N

>  <SLURM_JOB_NAME>  (168) 
BulkDock.place:Flavi_NS5_RdRp:RdRp_knitwork_primer_grip_n_pocket_pure_split1800_batch000

>  <SLURM_JOB_ID>  (168) 
217034

>  <name>  (168) 
CYTVGLIGRGDJAE-UHFFFAOYSA-N

$$$$
83148
     RDKit          3D

 21 22  0  0  0  0  0  0  0  0999 V2000
  -12.7838  -35.2121  -20.3232 C   0  0  0  0  0  0  0  0  0  0  0  0
  -12.1587  -36.5563  -20.5888 N   0  0  0  0  0  0  0  0  0  0  0  0
  -10.9298  -35.7340  -20.4250 C   0  0  0  0  0  0  0  0  0  0  0  0
  -12.7563  -37.2063  -21.8257 C   0  0  0  0  0  0  0  0  0  0  0  0
  -12.4271  -37.1420  -22.9536 O   0  0  0  0  0  0  0  0  0  0  0  0
  -13.9293  -38.0337  -21.3455 C   0  0  0  0  0  0  0  0  0  0  0  0
  -13.7820  -39.4170  -21.7387 N   0  0  0  0  0  0  0  0  0  0  0  0
  -13.0801  -40.3848  -21.0815 C   0  0  0  0  0  0  0  0  0  0  0  0
  -13.4721  -41.5740  -21.6488 C   0  0  0  0  0  0  0  0  0  0  0  0
  -14.3951  -41.2143  -22.6501 C   0  0  0  0  0  0  0  0  0  0  0  0
  -15.0751  -42.1152  -23.4484 N   0  0  0  0  0  0  0  0  0  0  0  0
  -16.6983  -41.8621  -23.7300 S   0  0  0  0  0  0  0  0  0  0  0  0
  -17.3381  -41.5122  -22.4793 O   0  0  0  0  0  0  0  0  0  0  0  0
  -17.1774  -43.0053  -24.4760 O   0  0  0  0  0  0  0  0  0  0  0  0
  -16.6804  -40.5175  -24.7374 N   0  0  0  0  0  0  0  0  0  0  0  0
  -15.9620  -40.7340  -26.0141 C   0  0  0  0  0  0  0  0  0  0  0  0
  -15.7688  -39.4237  -26.7562 C   0  0  0  0  0  0  0  0  0  0  0  0
  -17.0574  -38.6275  -26.8948 C   0  0  0  0  0  0  0  0  0  0  0  0
  -17.7517  -38.4771  -25.5492 C   0  0  0  0  0  0  0  0  0  0  0  0
  -17.9779  -39.8450  -24.9120 C   0  0  0  0  0  0  0  0  0  0  0  0
  -14.5349  -39.8952  -22.7331 N   0  0  0  0  0  0  0  0  0  0  0  0
  1  2  1  0
  2  3  1  0
  2  4  1  0
  4  5  2  0
  4  6  1  0
  6  7  1  0
  7  8  1  0
  8  9  2  0
  9 10  1  0
 10 11  1  0
 11 12  1  0
 12 13  2  0
 12 14  2  0
 12 15  1  0
 15 16  1  0
 16 17  1  0
 17 18  1  0
 18 19  1  0
 19 20  1  0
 10 21  2  0
 21  7  1  0
 20 15  1  0
M  END
>  <fragmenstein_mode>  (169) 
expansion

>  <original SMILES>  (169) 
CN(C)C(=O)Cn1ccc(NS(=O)(=O)N2CCCCC2)n1

>  <fragmenstein_outcome>  (169) 
acceptable

>  <energy_score>  (169) 
-8.628476

>  <tags>  (169) 
['Fragmenstein placed']

>  <original ID>  (169) 
CYTVGLIGRGDJAE-UHFFFAOYSA-N

>  <alias>  (169) 
None

>  <ref_mols>  (169) 
d0160a,d0866a

>  <HIPPO Pose ID>  (169) 
83148

>  <ref_pdb>  (169) 
d0866a

>  <scratch_subdir>  (169) 
/opt/xchem-fragalysis-2/maxwin/BulkDock/SCRATCH/217034/C23249-P68

>  <HIPPO Compound ID>  (169) 
23249

>  <exports>  (169) 
['/opt/xchem-fragalysis-2/maxwin/BulkDock/OUTPUTS/RdRp_knitwork_primer_grip_n_pocket_pure_split1800_batch000_217034.sdf']

>  <fragmenstein_runtime>  (169) 
4.66975

>  <fragmenstein_error>  (169) 
None

>  <distance_score>  (169) 
0.973468

>  <csv_name>  (169) 
RdRp_knitwork_primer_grip_n_pocket_pure_split1800_batch000.csv

>  <inchikey>  (169) 
CYTVGLIGRGDJAE-UHFFFAOYSA-N

>  <SLURM_JOB_NAME>  (169) 
BulkDock.place:Flavi_NS5_RdRp:RdRp_knitwork_primer_grip_n_pocket_pure_split1800_batch000

>  <SLURM_JOB_ID>  (169) 
217034

>  <name>  (169) 
CYTVGLIGRGDJAE-UHFFFAOYSA-N

$$$$
