DNV2_NS5A-x0789_A_1701_1_DNV2_NS5A-x0789+A+1701+1
     RDKit          3D

 14 15  0  0  0  0  0  0  0  0999 V2000
  -28.5610  -73.7600  -30.1880 O   0  0  0  0  0  0  0  0  0  0  0  0
  -28.1970  -72.9070  -29.3950 C   0  0  0  0  0  0  0  0  0  0  0  0
  -29.0380  -72.1470  -28.4010 C   0  0  0  0  0  0  0  0  0  0  0  0
  -27.9650  -71.3010  -27.7850 C   0  0  0  0  0  0  0  0  0  0  0  0
  -28.2110  -70.3180  -26.6900 C   0  0  0  0  0  0  0  0  0  0  0  0
  -26.9030  -72.4580  -29.2490 N   0  0  0  0  0  0  0  0  0  0  0  0
  -26.7990  -71.4880  -28.2710 N   0  0  0  0  0  0  0  0  0  0  0  0
  -25.7320  -72.8670  -29.9570 C   0  0  0  0  0  0  0  0  0  0  0  0
  -25.4750  -74.2280  -30.1250 C   0  0  0  0  0  0  0  0  0  0  0  0
  -24.3670  -74.6420  -30.8690 C   0  0  0  0  0  0  0  0  0  0  0  0
  -24.0910  -75.9790  -31.0130 N   0  0  0  0  0  0  0  0  0  0  0  0
  -23.5340  -73.6730  -31.4450 C   0  0  0  0  0  0  0  0  0  0  0  0
  -23.7940  -72.3230  -31.2650 C   0  0  0  0  0  0  0  0  0  0  0  0
  -24.8860  -71.9130  -30.5180 C   0  0  0  0  0  0  0  0  0  0  0  0
  5  4  1  0
  4  7  2  0
  7  6  1  0
  6  2  1  0
  2  1  2  0
  3  2  1  0
  4  3  1  0
  8  6  1  0
  8 14  2  0
 14 13  1  0
 13 12  2  0
 12 10  1  0
 11 10  1  0
 10  9  2  0
  9  8  1  0
M  END
$$$$

