Zika_NS5A-x0481_A_1301_1_Zika_NS5A-x0136+A+1016+1
     RDKit          3D

 14 15  0  0  0  0  0  0  0  0999 V2000
  -24.9810  -61.9780   -2.1510 F   0  0  0  0  0  0  0  0  0  0  0  0
  -25.7620  -60.9540   -2.5360 C   0  0  0  0  0  0  0  0  0  0  0  0
  -25.5350  -59.7070   -1.9660 C   0  0  0  0  0  0  0  0  0  0  0  0
  -26.2980  -58.6440   -2.4480 C   0  0  0  0  0  0  0  0  0  0  0  0
  -27.2540  -58.8550   -3.4310 C   0  0  0  0  0  0  0  0  0  0  0  0
  -27.4660  -60.1160   -3.9450 C   0  0  0  0  0  0  0  0  0  0  0  0
  -26.7110  -61.1830   -3.5020 C   0  0  0  0  0  0  0  0  0  0  0  0
  -24.6320  -59.4690   -0.9260 N   0  0  0  0  0  0  0  0  0  0  0  0
  -23.8910  -60.4750   -0.1850 C   0  0  0  0  0  0  0  0  0  0  0  0
  -24.7840  -61.2250    0.7510 C   0  0  0  0  0  0  0  0  0  0  0  0
  -24.4270  -62.4350    1.1880 N   0  0  0  0  0  0  0  0  0  0  0  0
  -25.4640  -62.8500    1.9570 N   0  0  0  0  0  0  0  0  0  0  0  0
  -26.4430  -61.9370    2.0200 C   0  0  0  0  0  0  0  0  0  0  0  0
  -26.0490  -60.8710    1.2590 C   0  0  0  0  0  0  0  0  0  0  0  0
  2  1  1  0
  2  7  2  0
  7  6  1  0
  6  5  2  0
  5  4  1  0
  4  3  2  0
  3  2  1  0
  8  3  1  0
  9  8  1  0
 10  9  1  0
 10 14  1  0
 14 13  2  0
 13 12  1  0
 12 11  1  0
 11 10  2  0
M  END
$$$$

