5hmw_A_1003_1_5i3p+A+1003+1
     RDKit          3D

 20 21  0  0  0  0  0  0  0  0999 V2000
  -15.4770  -44.5400  -16.9800 C   0  0  0  0  0  0  0  0  0  0  0  0
  -15.5540  -44.3040  -18.4770 C   0  0  0  0  0  0  0  0  0  0  0  0
  -14.5940  -43.4820  -19.0810 C   0  0  0  0  0  0  0  0  0  0  0  0
  -17.0100  -42.7160  -16.6060 O   0  0  0  0  0  0  0  0  0  0  0  0
  -15.0540  -40.5100  -21.4330 O   0  0  0  0  0  0  0  0  0  0  0  0
  -13.1650  -40.1660  -20.4340 O   0  0  0  0  0  0  0  0  0  0  0  0
  -18.7030  -47.5000  -22.1540 C   0  0  0  0  0  0  0  0  0  0  0  0
  -19.2740  -46.8520  -23.2530 C   0  0  0  0  0  0  0  0  0  0  0  0
  -18.9510  -45.5150  -23.5060 C   0  0  0  0  0  0  0  0  0  0  0  0
  -18.0850  -44.8290  -22.6540 C   0  0  0  0  0  0  0  0  0  0  0  0
  -16.5230  -44.9550  -19.2590 C   0  0  0  0  0  0  0  0  0  0  0  0
  -13.9690  -40.9250  -20.9950 C   0  0  0  0  0  0  0  0  0  0  0  0
  -13.6070  -42.3860  -21.1290 C   0  0  0  0  0  0  0  0  0  0  0  0
  -14.6290  -43.2730  -20.4580 C   0  0  0  0  0  0  0  0  0  0  0  0
  -15.5790  -43.9440  -21.2370 C   0  0  0  0  0  0  0  0  0  0  0  0
  -16.5550  -44.7580  -20.6480 C   0  0  0  0  0  0  0  0  0  0  0  0
  -16.4960  -43.7610  -16.1640 C   0  0  0  0  0  0  0  0  0  0  0  0
  -16.7790  -44.1840  -15.0250 O   0  0  0  0  0  0  0  0  0  0  0  0
  -17.5350  -45.4660  -21.5310 C   0  0  0  0  0  0  0  0  0  0  0  0
  -17.8320  -46.8140  -21.3040 C   0  0  0  0  0  0  0  0  0  0  0  0
  8  7  2  0
  8  9  1  0
  7 20  1  0
  9 10  2  0
 20 19  2  0
 10 19  1  0
 19 16  1  0
 16 11  1  0
 16 15  2  0
 11  2  2  0
 15 14  1  0
  2  1  1  0
  2  3  1  0
 14  3  2  0
 14 13  1  0
  1 17  1  0
 17 18  2  0
 17  4  1  0
 13 12  1  0
  5 12  2  0
 12  6  1  0
M  END
$$$$

