DNV2_NS5A-x0851_A_1608_1_DNV2_NS5A-x0254+A+1701+1
     RDKit          3D

 13 13  0  0  0  0  0  0  0  0999 V2000
  -19.4450  -40.1580  -24.5280 O   0  0  0  0  0  0  0  0  0  0  0  0
  -18.9330  -39.8460  -25.8250 S   0  0  0  0  0  0  0  0  0  0  0  0
  -18.8770  -38.4810  -26.2410 O   0  0  0  0  0  0  0  0  0  0  0  0
  -19.8270  -40.7660  -27.0180 C   0  0  0  0  0  0  0  0  0  0  0  0
  -17.3930  -40.3950  -25.8530 N   0  0  0  0  0  0  0  0  0  0  0  0
  -17.1990  -41.6840  -26.5730 C   0  0  1  0  0  0  0  0  0  0  0  0
  -16.5120  -41.5010  -27.9140 C   0  0  0  0  0  0  0  0  0  0  0  0
  -16.5660  -42.7800  -25.7140 C   0  0  0  0  0  0  0  0  0  0  0  0
  -15.9910  -42.2600  -24.4020 C   0  0  0  0  0  0  0  0  0  0  0  0
  -15.3660  -40.8820  -24.5510 C   0  0  0  0  0  0  0  0  0  0  0  0
  -16.4600  -39.8640  -24.8200 C   0  0  1  0  0  0  0  0  0  0  0  0
  -15.9060  -38.5170  -25.2440 C   0  0  0  0  0  0  0  0  0  0  0  0
  -16.2290  -38.2620  -26.5980 O   0  0  0  0  0  0  0  0  0  0  0  0
 13 12  1  0
 11 12  1  6
 11  5  1  0
  5  2  1  0
  4  2  1  0
  3  2  2  0
  2  1  2  0
  6  5  1  0
  6  7  1  6
  8  6  1  0
  9  8  1  0
 10  9  1  0
 11 10  1  0
M  END
$$$$

