6xd1_A_1003_1_6xd1+A+1003+1
     RDKit          3D

 50 55  0  0  0  0  0  0  0  0999 V2000
  -27.1610  -34.8330   -8.9390 C   0  0  0  0  0  0  0  0  0  0  0  0
  -28.5220  -34.6850   -9.7190 C   0  0  0  0  0  0  0  0  0  0  0  0
  -26.2740  -33.5700   -9.1920 C   0  0  0  0  0  0  0  0  0  0  0  0
  -25.2600  -26.8700    0.1270 C   0  0  0  0  0  0  0  0  0  0  0  0
  -26.3510  -28.7490    1.2070 C   0  0  0  0  0  0  0  0  0  0  0  0
  -24.9670  -25.9330   -1.0370 C   0  0  0  0  0  0  0  0  0  0  0  0
  -24.5610  -26.6460    1.3340 C   0  0  0  0  0  0  0  0  0  0  0  0
  -25.6410  -28.5270    2.3910 C   0  0  0  0  0  0  0  0  0  0  0  0
  -24.7390  -27.4700    2.4510 C   0  0  0  0  0  0  0  0  0  0  0  0
  -30.9730  -34.5150   -9.8990 C   0  0  0  0  0  0  0  0  0  0  0  0
  -29.6670  -34.5850  -11.9180 C   0  0  0  0  0  0  0  0  0  0  0  0
  -24.2940  -32.2810   -8.5320 C   0  0  0  0  0  0  0  0  0  0  0  0
  -25.7010  -31.4800  -10.3090 C   0  0  0  0  0  0  0  0  0  0  0  0
  -27.9080  -34.3420   -5.0730 C   0  0  2  0  0  0  0  0  0  0  0  0
  -28.3020  -32.6460   -6.9430 C   0  0  0  0  0  0  0  0  0  0  0  0
  -30.9160  -34.5100  -11.2920 C   0  0  0  0  0  0  0  0  0  0  0  0
  -24.5720  -31.3220   -9.5040 C   0  0  0  0  0  0  0  0  0  0  0  0
  -29.3610  -33.9830   -4.6490 C   0  0  0  0  0  0  0  0  0  0  0  0
  -26.7670  -33.6740   -4.3030 C   0  0  0  0  0  0  0  0  0  0  0  0
  -28.6540  -31.7800   -5.7000 C   0  0  0  0  0  0  0  0  0  0  0  0
  -30.4470  -31.8180   -3.9990 C   0  0  0  0  0  0  0  0  0  0  0  0
  -29.6310  -29.4870   -4.5330 C   0  0  0  0  0  0  0  0  0  0  0  0
  -31.6360  -29.8040   -3.1000 C   0  0  0  0  0  0  0  0  0  0  0  0
  -27.3410  -34.9640   -7.4000 C   0  0  0  0  0  0  0  0  0  0  0  0
  -26.3930  -36.0900   -9.4820 C   0  0  0  0  0  0  0  0  0  0  0  0
  -29.8020  -34.6450   -9.1370 C   0  0  0  0  0  0  0  0  0  0  0  0
  -28.5080  -34.7050  -11.1360 C   0  0  0  0  0  0  0  0  0  0  0  0
  -25.1340  -33.3860   -8.3900 C   0  0  0  0  0  0  0  0  0  0  0  0
  -26.5450  -32.5820  -10.1530 C   0  0  0  0  0  0  0  0  0  0  0  0
  -27.8500  -34.0070   -6.5230 N   0  0  0  0  0  0  0  0  0  0  0  0
  -26.9690  -36.0470   -6.9320 O   0  0  0  0  0  0  0  0  0  0  0  0
  -29.5740  -32.5220   -4.8130 N   0  0  0  0  0  0  0  0  0  0  0  0
  -26.8460  -33.7050   -2.9730 O   0  0  0  0  0  0  0  0  0  0  0  0
  -25.8120  -33.1320   -4.8670 O   0  0  0  0  0  0  0  0  0  0  0  0
  -30.5720  -30.4360   -3.9090 N   0  0  0  0  0  0  0  0  0  0  0  0
  -31.1830  -32.4980   -3.2660 O   0  0  0  0  0  0  0  0  0  0  0  0
  -28.6950  -29.0510   -3.3560 C   0  0  0  0  0  0  0  0  0  0  0  0
  -32.9560  -29.8520   -3.9440 C   0  0  0  0  0  0  0  0  0  0  0  0
  -27.9710  -30.0020   -2.6070 C   0  0  0  0  0  0  0  0  0  0  0  0
  -28.5800  -27.7150   -2.9370 C   0  0  0  0  0  0  0  0  0  0  0  0
  -34.0990  -28.9400   -3.4300 C   0  0  0  0  0  0  0  0  0  0  0  0
  -27.1500  -29.6450   -1.5150 C   0  0  0  0  0  0  0  0  0  0  0  0
  -27.7880  -27.3530   -1.8270 C   0  0  0  0  0  0  0  0  0  0  0  0
  -35.3500  -29.0480   -4.3510 C   0  0  0  0  0  0  0  0  0  0  0  0
  -27.0230  -28.3020   -1.1300 C   0  0  0  0  0  0  0  0  0  0  0  0
  -26.1830  -27.9350    0.0660 C   0  0  0  0  0  0  0  0  0  0  0  0
  -24.7200  -24.6700   -0.8610 N   0  0  0  0  0  0  0  0  0  0  0  0
  -24.9160  -26.3450   -2.2460 N   0  0  0  0  0  0  0  0  0  0  0  0
  -24.5050  -24.1490   -2.0850 N   0  0  0  0  0  0  0  0  0  0  0  0
  -24.6170  -25.1640   -2.9700 N   0  0  0  0  0  0  0  0  0  0  0  0
 16 10  2  0
 16 11  1  0
 10 26  1  0
 11 27  2  0
 26  2  2  0
 27  2  1  0
  2  1  1  0
 25  1  1  0
  1 24  1  0
  1  3  1  0
 31 24  2  0
 24 30  1  0
 44 41  1  0
 18 14  1  0
 18 32  1  0
 30 14  1  0
 30 15  1  0
 29  3  2  0
 29 13  1  0
  3 28  1  0
 36 21  2  0
 14 19  1  1
 15 20  1  0
 38 41  1  0
 38 23  1  0
 32 21  1  0
 32 20  1  0
 21 35  1  0
 13 17  2  0
 28 12  2  0
 35 23  1  0
 35 22  1  0
 19 33  2  0
 19 34  1  0
 17 12  1  0
 22 37  1  0
 37 39  2  0
 37 40  1  0
 39 42  1  0
 40 43  2  0
 42 45  2  0
 43 45  1  0
 45 46  1  0
  5 46  2  0
  5  8  1  0
 46  4  1  0
 48 50  1  0
 48  6  2  0
  8  9  2  0
  4  6  1  0
  4  7  2  0
 50 49  2  0
  6 47  1  0
  9  7  1  0
 49 47  1  0
M  END
$$$$

