DNV2_NS5A-x0771_A_1701_1_DNV2_NS5A-x0249+A+1707+1
     RDKit          3D

 16 17  0  0  0  0  0  0  0  0999 V2000
   -5.3820  -73.4820  -16.9890 O   0  0  0  0  0  0  0  0  0  0  0  0
   -6.4870  -73.6640  -16.5100 C   0  0  0  0  0  0  0  0  0  0  0  0
   -6.6680  -74.3720  -15.3760 N   0  0  0  0  0  0  0  0  0  0  0  0
   -5.8080  -74.2560  -14.1970 C   0  0  0  0  0  0  0  0  0  0  0  0
   -6.6490  -73.9360  -12.9930 C   0  0  0  0  0  0  0  0  0  0  0  0
   -7.6690  -74.9070  -12.7970 O   0  0  0  0  0  0  0  0  0  0  0  0
   -8.5270  -74.9500  -13.9320 C   0  0  0  0  0  0  0  0  0  0  0  0
   -7.7760  -75.3100  -15.1830 C   0  0  0  0  0  0  0  0  0  0  0  0
   -7.7180  -73.0630  -17.1510 C   0  0  0  0  0  0  0  0  0  0  0  0
   -7.4050  -72.2670  -18.4110 C   0  0  0  0  0  0  0  0  0  0  0  0
   -8.6620  -72.1680  -19.2720 C   0  0  0  0  0  0  0  0  0  0  0  0
   -9.7520  -71.3700  -18.5700 C   0  0  0  0  0  0  0  0  0  0  0  0
  -10.8610  -70.9470  -19.5260 C   0  0  0  0  0  0  0  0  0  0  0  0
  -10.3430  -69.9990  -20.5890 C   0  0  0  0  0  0  0  0  0  0  0  0
   -8.8360  -70.0910  -20.7030 C   0  0  0  0  0  0  0  0  0  0  0  0
   -8.3650  -71.5390  -20.6250 C   0  0  0  0  0  0  0  0  0  0  0  0
  2  1  2  0
  9  2  1  0
 10  9  1  0
 11 10  1  0
 11 16  1  0
 16 15  1  0
 15 14  1  0
 14 13  1  0
 13 12  1  0
 12 11  1  0
  3  2  1  0
  3  8  1  0
  8  7  1  0
  7  6  1  0
  6  5  1  0
  5  4  1  0
  4  3  1  0
M  END
$$$$

