Zika_NS5A-x0821_A_1013_1_Zika_NS5A-x0103+A+1112+1
     RDKit          3D

  5  5  0  0  0  0  0  0  0  0999 V2000
  -18.9550  -33.6340  -20.3420 O   0  0  0  0  0  0  0  0  0  0  0  0
  -18.1610  -34.6830  -20.8780 C   0  0  0  0  0  0  0  0  0  0  0  0
  -16.8060  -34.7450  -20.2000 C   0  0  0  0  0  0  0  0  0  0  0  0
  -15.5740  -34.8400  -21.0400 C   0  0  0  0  0  0  0  0  0  0  0  0
  -15.8970  -33.5700  -20.3210 C   0  0  0  0  0  0  0  0  0  0  0  0
  2  1  1  0
  3  2  1  0
  3  5  1  0
  5  4  1  0
  4  3  1  0
M  END
$$$$

