Zika_NS5A-x0993_A_1112_1_Zika_NS5A-x0411+A+1104+1
     RDKit          3D

 15 16  0  0  0  0  0  0  0  0999 V2000
   -0.6130  -31.4250  -26.0480 O   0  0  0  0  0  0  0  0  0  0  0  0
   -0.6060  -31.6820  -24.8350 C   0  0  0  0  0  0  0  0  0  0  0  0
    0.1900  -32.6040  -24.3080 N   0  0  0  0  0  0  0  0  0  0  0  0
   -1.4870  -30.8940  -23.8980 C   0  0  0  0  0  0  0  0  0  0  0  0
   -2.6480  -30.2710  -24.3520 C   0  0  0  0  0  0  0  0  0  0  0  0
   -3.3720  -29.4780  -23.4530 C   0  0  0  0  0  0  0  0  0  0  0  0
   -2.9950  -29.2870  -22.1770 N   0  0  0  0  0  0  0  0  0  0  0  0
   -1.8850  -29.9150  -21.7600 C   0  0  0  0  0  0  0  0  0  0  0  0
   -1.1120  -30.7230  -22.5670 C   0  0  0  0  0  0  0  0  0  0  0  0
   -4.5430  -28.8960  -23.8610 N   0  0  0  0  0  0  0  0  0  0  0  0
   -5.6190  -28.5620  -22.9340 C   0  0  0  0  0  0  0  0  0  0  0  0
   -6.4920  -29.7790  -22.5870 C   0  0  0  0  0  0  0  0  0  0  0  0
   -7.8270  -29.4480  -23.1750 C   0  0  0  0  0  0  0  0  0  0  0  0
   -7.8840  -28.2320  -23.6490 C   0  0  0  0  0  0  0  0  0  0  0  0
   -6.6020  -27.5120  -23.4860 C   0  0  0  0  0  0  0  0  0  0  0  0
  3  2  1  0
  2  1  2  0
  4  2  1  0
  4  9  2  0
  9  8  1  0
  8  7  2  0
  7  6  1  0
 10  6  1  0
 11 10  1  0
 11 15  1  0
 15 14  1  0
 14 13  2  0
 13 12  1  0
 12 11  1  0
  6  5  2  0
  5  4  1  0
M  END
$$$$

