Zika_NS5A-x0176_A_1103_1_Zika_NS5A-x0176+A+1103+1
     RDKit          3D

 15 16  0  0  0  0  0  0  0  0999 V2000
   11.4150  -13.6460  -23.6300 N   0  0  0  0  0  0  0  0  0  0  0  0
   12.2680  -12.4490  -23.6960 C   0  0  2  0  0  0  0  0  0  0  0  0
   11.4840  -11.2650  -24.2560 C   0  0  0  0  0  0  0  0  0  0  0  0
   13.5160  -12.6620  -24.5110 C   0  0  0  0  0  0  0  0  0  0  0  0
   13.7650  -11.7850  -25.4960 O   0  0  0  0  0  0  0  0  0  0  0  0
   14.9620  -12.2140  -26.1090 N   0  0  0  0  0  0  0  0  0  0  0  0
   15.2750  -13.2770  -25.4350 C   0  0  0  0  0  0  0  0  0  0  0  0
   14.4100  -13.5910  -24.4180 N   0  0  0  0  0  0  0  0  0  0  0  0
   16.4610  -14.1280  -25.7670 C   0  0  0  0  0  0  0  0  0  0  0  0
   16.8460  -14.1260  -27.2300 C   0  0  0  0  0  0  0  0  0  0  0  0
   17.6360  -13.1140  -27.7570 C   0  0  0  0  0  0  0  0  0  0  0  0
   17.9570  -13.0940  -29.1060 C   0  0  0  0  0  0  0  0  0  0  0  0
   17.4860  -14.0800  -29.9470 C   0  0  0  0  0  0  0  0  0  0  0  0
   16.7170  -15.0960  -29.4390 C   0  0  0  0  0  0  0  0  0  0  0  0
   16.4070  -15.1280  -28.0860 C   0  0  0  0  0  0  0  0  0  0  0  0
  2  3  1  6
  2  1  1  0
  4  2  1  0
  4  8  2  0
  8  7  1  0
  9  7  1  0
 10  9  1  0
 10 15  2  0
 15 14  1  0
 14 13  2  0
 13 12  1  0
 12 11  2  0
 11 10  1  0
  7  6  2  0
  6  5  1  0
  5  4  1  0
M  END
$$$$

