Zika_NS5A-x0910_A_1013_1_Zika_NS5A-x0903+A+1201+1
     RDKit          3D

 13 14  0  0  0  0  0  0  0  0999 V2000
   16.1970  -15.3790  -31.0840 O   0  0  0  0  0  0  0  0  0  0  0  0
   16.4980  -14.2340  -30.7640 C   0  0  0  0  0  0  0  0  0  0  0  0
   16.3700  -13.1970  -31.6080 N   0  0  0  0  0  0  0  0  0  0  0  0
   17.1320  -13.0990  -32.8530 C   0  0  0  0  0  0  0  0  0  0  0  0
   16.5540  -13.6840  -34.0870 C   0  0  0  0  0  0  0  0  0  0  0  0
   16.6250  -12.2060  -33.9240 C   0  0  0  0  0  0  0  0  0  0  0  0
   16.9850  -13.9240  -29.3800 C   0  0  0  0  0  0  0  0  0  0  0  0
   16.5410  -14.6210  -28.2360 C   0  0  0  0  0  0  0  0  0  0  0  0
   15.7950  -15.7530  -28.3290 O   0  0  0  0  0  0  0  0  0  0  0  0
   17.8210  -12.8180  -29.2010 C   0  0  0  0  0  0  0  0  0  0  0  0
   18.1540  -12.3830  -27.9290 C   0  0  0  0  0  0  0  0  0  0  0  0
   17.6760  -13.0420  -26.8230 C   0  0  0  0  0  0  0  0  0  0  0  0
   16.8830  -14.1660  -26.9680 C   0  0  0  0  0  0  0  0  0  0  0  0
  9  8  1  0
  8 13  2  0
 13 12  1  0
 12 11  2  0
 11 10  1  0
 10  7  2  0
  8  7  1  0
  7  2  1  0
  2  1  2  0
  3  2  1  0
  4  3  1  0
  4  6  1  0
  6  5  1  0
  5  4  1  0
M  END
$$$$

