5f3t_A_1003_1_5i3p+A+1003+1
     RDKit          3D

 18 19  0  0  0  0  0  0  0  0999 V2000
  -15.5480  -43.9340  -21.6070 C   0  0  0  0  0  0  0  0  0  0  0  0
  -14.5980  -43.2170  -20.8560 C   0  0  0  0  0  0  0  0  0  0  0  0
  -14.5670  -43.3410  -19.4640 C   0  0  0  0  0  0  0  0  0  0  0  0
  -16.9070  -44.0190  -15.4960 O   0  0  0  0  0  0  0  0  0  0  0  0
  -16.8110  -42.4260  -17.0100 O   0  0  0  0  0  0  0  0  0  0  0  0
  -19.0950  -45.8630  -23.4880 C   0  0  0  0  0  0  0  0  0  0  0  0
  -19.3250  -47.1890  -23.1340 C   0  0  0  0  0  0  0  0  0  0  0  0
  -18.6400  -47.7380  -22.0480 C   0  0  0  0  0  0  0  0  0  0  0  0
  -17.7270  -46.9640  -21.3260 C   0  0  0  0  0  0  0  0  0  0  0  0
  -16.4370  -43.5270  -16.5460 C   0  0  0  0  0  0  0  0  0  0  0  0
  -15.3540  -44.2790  -17.2720 C   0  0  0  0  0  0  0  0  0  0  0  0
  -15.4750  -44.1550  -18.7800 C   0  0  0  0  0  0  0  0  0  0  0  0
  -16.4330  -44.9030  -19.4850 C   0  0  0  0  0  0  0  0  0  0  0  0
  -16.5200  -44.8140  -20.8860 C   0  0  0  0  0  0  0  0  0  0  0  0
  -15.6030  -43.8440  -22.9840 O   0  0  0  0  0  0  0  0  0  0  0  0
  -14.5360  -43.2680  -23.7430 C   0  0  0  0  0  0  0  0  0  0  0  0
  -17.5180  -45.6190  -21.6590 C   0  0  0  0  0  0  0  0  0  0  0  0
  -18.2180  -45.0690  -22.7410 C   0  0  0  0  0  0  0  0  0  0  0  0
  7  8  1  0
  7  6  2  0
  8  9  2  0
  6 18  1  0
  9 17  1  0
 18 17  2  0
 17 14  1  0
 14 13  1  0
 14  1  2  0
 15  1  1  0
 15 16  1  0
 13 12  2  0
  1  2  1  0
 12 11  1  0
 12  3  1  0
  2  3  2  0
  4 10  2  0
 11 10  1  0
 10  5  1  0
M  END
$$$$

