Zika_NS5A-x0411_A_1104_1_Zika_NS5A-x0411+A+1104+1
     RDKit          3D

 18 19  0  0  0  0  0  0  0  0999 V2000
  -14.2870  -25.1980  -19.9720 O   0  0  0  0  0  0  0  0  0  0  0  0
  -13.9480  -24.5100  -20.9270 C   0  0  0  0  0  0  0  0  0  0  0  0
  -12.7630  -24.6440  -21.5840 N   0  0  0  0  0  0  0  0  0  0  0  0
  -11.7410  -25.5700  -21.3230 C   0  0  0  0  0  0  0  0  0  0  0  0
  -10.5100  -25.3920  -21.9330 C   0  0  0  0  0  0  0  0  0  0  0  0
   -9.4800  -26.2300  -21.5720 C   0  0  0  0  0  0  0  0  0  0  0  0
   -9.5930  -27.2210  -20.6810 N   0  0  0  0  0  0  0  0  0  0  0  0
  -10.7990  -27.4100  -20.1420 C   0  0  0  0  0  0  0  0  0  0  0  0
  -11.8960  -26.6210  -20.4260 C   0  0  0  0  0  0  0  0  0  0  0  0
  -14.7240  -23.5120  -21.4300 N   0  0  0  0  0  0  0  0  0  0  0  0
  -16.0200  -23.1630  -20.9780 C   0  0  0  0  0  0  0  0  0  0  0  0
  -16.4480  -21.8530  -21.1080 C   0  0  0  0  0  0  0  0  0  0  0  0
  -17.7540  -21.5080  -20.8230 C   0  0  0  0  0  0  0  0  0  0  0  0
  -16.9050  -24.1170  -20.5000 C   0  0  0  0  0  0  0  0  0  0  0  0
  -18.2000  -23.7650  -20.1690 C   0  0  0  0  0  0  0  0  0  0  0  0
  -18.6240  -22.4600  -20.3440 C   0  0  0  0  0  0  0  0  0  0  0  0
  -19.8320  -21.9010  -20.0350 O   0  0  0  0  0  0  0  0  0  0  0  0
  -20.8910  -22.7770  -19.6910 C   0  0  0  0  0  0  0  0  0  0  0  0
 18 17  1  0
 17 16  1  0
 16 13  1  0
 13 12  2  0
 12 11  1  0
 11 10  1  0
 10  2  1  0
  2  1  2  0
  3  2  1  0
  4  3  1  0
  4  9  2  0
  9  8  1  0
  8  7  2  0
  7  6  1  0
  6  5  2  0
  5  4  1  0
 14 11  2  0
 15 14  1  0
 16 15  2  0
M  END
$$$$

