DNV2_NS5A-x0323_A_1701_1_DNV2_NS5A-x0323+A+1701+1
     RDKit          3D

 10 11  0  0  0  0  0  0  0  0999 V2000
  -10.2490  -13.8110  -41.8410 Cl  0  0  0  0  0  0  0  0  0  0  0  0
  -10.4410  -15.5270  -41.9950 C   0  0  0  0  0  0  0  0  0  0  0  0
  -10.1190  -16.1640  -43.1920 C   0  0  0  0  0  0  0  0  0  0  0  0
   -9.6700  -15.7070  -44.4050 N   0  0  0  0  0  0  0  0  0  0  0  0
   -9.5330  -16.8010  -45.1920 C   0  0  0  0  0  0  0  0  0  0  0  0
   -9.8560  -17.9340  -44.5920 N   0  0  0  0  0  0  0  0  0  0  0  0
  -10.2380  -17.5520  -43.3050 C   0  0  0  0  0  0  0  0  0  0  0  0
  -10.6890  -18.2840  -42.2050 C   0  0  0  0  0  0  0  0  0  0  0  0
  -11.0150  -17.6300  -41.0210 C   0  0  0  0  0  0  0  0  0  0  0  0
  -10.8910  -16.2510  -40.9100 C   0  0  0  0  0  0  0  0  0  0  0  0
  2  1  1  0
  2 10  2  0
 10  9  1  0
  9  8  2  0
  8  7  1  0
  7  6  1  0
  6  5  2  0
  5  4  1  0
  4  3  1  0
  3  2  1  0
  7  3  2  0
M  END
$$$$

