Zika_NS5A-x0481_A_1201_1_Zika_NS5A-x0481+A+1201+1
     RDKit          3D

 14 15  0  0  0  0  0  0  0  0999 V2000
  -21.9930  -63.3910  -24.2300 F   0  0  0  0  0  0  0  0  0  0  0  0
  -22.6090  -62.4450  -24.9750 C   0  0  0  0  0  0  0  0  0  0  0  0
  -23.9610  -62.2480  -24.7640 C   0  0  0  0  0  0  0  0  0  0  0  0
  -24.6190  -61.3410  -25.6020 C   0  0  0  0  0  0  0  0  0  0  0  0
  -23.9100  -60.6460  -26.5720 C   0  0  0  0  0  0  0  0  0  0  0  0
  -22.5580  -60.8500  -26.7320 C   0  0  0  0  0  0  0  0  0  0  0  0
  -21.8910  -61.7650  -25.9350 C   0  0  0  0  0  0  0  0  0  0  0  0
  -24.5640  -62.8900  -23.6960 N   0  0  0  0  0  0  0  0  0  0  0  0
  -25.3140  -64.1260  -23.7960 C   0  0  0  0  0  0  0  0  0  0  0  0
  -26.6390  -63.8830  -24.4470 C   0  0  0  0  0  0  0  0  0  0  0  0
  -27.3600  -62.8100  -24.1200 N   0  0  0  0  0  0  0  0  0  0  0  0
  -28.4960  -62.9260  -24.8580 N   0  0  0  0  0  0  0  0  0  0  0  0
  -28.5010  -64.0190  -25.6230 C   0  0  0  0  0  0  0  0  0  0  0  0
  -27.3240  -64.6670  -25.3970 C   0  0  0  0  0  0  0  0  0  0  0  0
  2  1  1  0
  2  7  2  0
  7  6  1  0
  6  5  2  0
  5  4  1  0
  4  3  2  0
  3  2  1  0
  8  3  1  0
  9  8  1  0
 10  9  1  0
 10 14  1  0
 14 13  2  0
 13 12  1  0
 12 11  1  0
 11 10  2  0
M  END
$$$$

