Zika_NS5A-x0881_A_1101_1_Zika_NS5A-x0111+A+1112+1
     RDKit          3D

 12 13  0  0  0  0  0  0  0  0999 V2000
   -3.0810  -39.5530  -47.7890 N   0  0  0  0  0  0  0  0  0  0  0  0
   -3.8300  -39.8790  -46.7230 C   0  0  0  0  0  0  0  0  0  0  0  0
   -4.4020  -41.1780  -46.6020 C   0  0  0  0  0  0  0  0  0  0  0  0
   -4.1540  -42.2700  -47.6120 C   0  0  0  0  0  0  0  0  0  0  0  0
   -3.9820  -38.9210  -45.7850 N   0  0  0  0  0  0  0  0  0  0  0  0
   -4.8120  -39.1650  -44.7170 C   0  0  0  0  0  0  0  0  0  0  0  0
   -5.4710  -40.4040  -44.5550 C   0  0  0  0  0  0  0  0  0  0  0  0
   -5.2330  -41.3960  -45.5290 C   0  0  0  0  0  0  0  0  0  0  0  0
   -5.0120  -38.1500  -43.7470 C   0  0  0  0  0  0  0  0  0  0  0  0
   -5.8080  -38.3800  -42.6570 C   0  0  0  0  0  0  0  0  0  0  0  0
   -6.4520  -39.6030  -42.4920 C   0  0  0  0  0  0  0  0  0  0  0  0
   -6.3040  -40.5970  -43.4190 C   0  0  0  0  0  0  0  0  0  0  0  0
  4  3  1  0
  3  8  2  0
  8  7  1  0
  7 12  2  0
 12 11  1  0
 11 10  2  0
 10  9  1  0
  9  6  2  0
  7  6  1  0
  6  5  1  0
  5  2  2  0
  3  2  1  0
  2  1  1  0
M  END
$$$$

