DNV2_NS5A-x0378_A_1707_1_DNV2_NS5A-x0172+A+1701+1
     RDKit          3D

 13 13  0  0  0  0  0  0  0  0999 V2000
  -23.9320  -26.7690  -22.2220 N   0  0  0  0  0  0  0  0  0  0  0  0
  -24.4060  -27.2700  -21.3140 C   0  0  0  0  0  0  0  0  0  0  0  0
  -25.0600  -27.8280  -20.1340 C   0  0  0  0  0  0  0  0  0  0  0  0
  -25.6190  -29.1920  -20.3820 C   0  0  0  0  0  0  0  0  0  0  0  0
  -25.6270  -29.8180  -21.5440 N   0  0  0  0  0  0  0  0  0  0  0  0
  -26.2540  -31.0210  -21.3050 C   0  0  0  0  0  0  0  0  0  0  0  0
  -26.6200  -31.1170  -20.0050 C   0  0  0  0  0  0  0  0  0  0  0  0
  -26.2110  -29.9480  -19.4100 N   0  0  0  0  0  0  0  0  0  0  0  0
  -26.3680  -29.6170  -17.9920 C   0  0  0  0  0  0  0  0  0  0  0  0
  -27.6370  -28.8610  -17.7020 C   0  0  0  0  0  0  0  0  0  0  0  0
  -27.5920  -28.2660  -16.5210 F   0  0  0  0  0  0  0  0  0  0  0  0
  -28.7060  -29.6510  -17.6860 F   0  0  0  0  0  0  0  0  0  0  0  0
  -27.8840  -27.8970  -18.5810 F   0  0  0  0  0  0  0  0  0  0  0  0
 11 10  1  0
 12 10  1  0
 13 10  1  0
 10  9  1  0
  9  8  1  0
  8  7  1  0
  7  6  2  0
  6  5  1  0
  5  4  2  0
  8  4  1  0
  4  3  1  0
  3  2  1  0
  2  1  3  0
M  END
>  <id>  (1) 
1

>  <inchikey>  (1) 
WWHCIFNAXSSZJE-UHFFFAOYSA-N

>  <alias>  (1) 
d0378a

>  <name>  (1) 
d0378a

>  <smiles>  (1) 
N#CCc1nccn1CC(F)(F)F

>  <path>  (1) 
/opt/xchem-fragalysis-2/maxwin/BulkDock/TARGETS/Flavi_NS5_RdRp/aligned_files/d0378a/d0378a.pdb

>  <distance_score>  (1) 
None

>  <energy_score>  (1) 
None

>  <compound>  (1) 
WWHCIFNAXSSZJE-UHFFFAOYSA-N

>  <compound_id>  (1) 
1

>  <target>  (1) 
Flavi_NS5_RdRp

$$$$
Zika_NS5A-x0165_A_1112_1_Zika_NS5A-x0351+A+1112+1
     RDKit          3D

 15 16  0  0  0  0  0  0  0  0999 V2000
  -25.6460  -27.2190  -21.1790 O   0  0  0  0  0  0  0  0  0  0  0  0
  -24.8380  -27.1140  -19.9960 S   0  0  0  0  0  0  0  0  0  0  0  0
  -23.4670  -27.5250  -20.0670 O   0  0  0  0  0  0  0  0  0  0  0  0
  -24.8330  -25.5810  -19.5430 N   0  0  0  0  0  0  0  0  0  0  0  0
  -25.6200  -28.0730  -18.7330 C   0  0  0  0  0  0  0  0  0  0  0  0
  -25.0150  -28.1970  -17.4920 C   0  0  0  0  0  0  0  0  0  0  0  0
  -25.6060  -28.9910  -16.5260 C   0  0  0  0  0  0  0  0  0  0  0  0
  -26.8180  -28.7170  -19.0090 C   0  0  0  0  0  0  0  0  0  0  0  0
  -27.4190  -29.5030  -18.0240 C   0  0  0  0  0  0  0  0  0  0  0  0
  -28.6410  -30.1050  -18.2840 N   0  0  0  0  0  0  0  0  0  0  0  0
  -29.2030  -30.0970  -19.6300 C   0  0  0  0  0  0  0  0  0  0  0  0
  -26.8090  -29.6450  -16.7730 C   0  0  0  0  0  0  0  0  0  0  0  0
  -27.5290  -30.4430  -15.7200 C   0  0  0  0  0  0  0  0  0  0  0  0
  -29.0230  -30.2030  -15.8120 C   0  0  0  0  0  0  0  0  0  0  0  0
  -29.6000  -30.3490  -17.2140 C   0  0  0  0  0  0  0  0  0  0  0  0
 11 10  1  0
 10 15  1  0
 15 14  1  0
 14 13  1  0
 13 12  1  0
 12  7  2  0
  7  6  1  0
  6  5  2  0
  8  5  1  0
  9  8  2  0
 10  9  1  0
 12  9  1  0
  5  2  1  0
  3  2  2  0
  2  1  2  0
  4  2  1  0
M  END
>  <id>  (2) 
3

>  <inchikey>  (2) 
OUJFDUTZTPBMDN-UHFFFAOYSA-N

>  <alias>  (2) 
z0165a

>  <name>  (2) 
z0165a

>  <smiles>  (2) 
CN1CCCc2ccc(S(N)(=O)=O)cc21

>  <path>  (2) 
/opt/xchem-fragalysis-2/maxwin/BulkDock/TARGETS/Flavi_NS5_RdRp/aligned_files/z0165a/z0165a.pdb

>  <distance_score>  (2) 
None

>  <energy_score>  (2) 
None

>  <compound>  (2) 
OUJFDUTZTPBMDN-UHFFFAOYSA-N

>  <compound_id>  (2) 
3

>  <target>  (2) 
Flavi_NS5_RdRp

$$$$
Zika_NS5A-x0904_A_1014_1_Zika_NS5A-x0351+A+1112+1
     RDKit          3D

 13 14  0  0  0  0  0  0  0  0999 V2000
  -27.1210  -30.5100  -21.8080 O   0  0  0  0  0  0  0  0  0  0  0  0
  -28.0850  -30.1040  -21.1720 C   0  0  0  0  0  0  0  0  0  0  0  0
  -29.3130  -29.6280  -21.8780 C   0  0  0  0  0  0  0  0  0  0  0  0
  -28.0480  -30.0850  -19.6840 C   0  0  0  0  0  0  0  0  0  0  0  0
  -26.8250  -29.9880  -19.0300 C   0  0  0  0  0  0  0  0  0  0  0  0
  -26.7490  -29.9870  -17.6400 C   0  0  0  0  0  0  0  0  0  0  0  0
  -27.9310  -30.1060  -16.8930 C   0  0  0  0  0  0  0  0  0  0  0  0
  -29.1620  -30.1830  -17.5470 C   0  0  0  0  0  0  0  0  0  0  0  0
  -29.2130  -30.1770  -18.9300 C   0  0  0  0  0  0  0  0  0  0  0  0
  -25.4340  -29.8120  -16.9260 C   0  0  0  0  0  0  0  0  0  0  0  0
  -25.4260  -30.4420  -15.5590 C   0  0  0  0  0  0  0  0  0  0  0  0
  -26.6640  -30.3150  -14.7460 C   0  0  0  0  0  0  0  0  0  0  0  0
  -27.8850  -30.2410  -15.5310 N   0  0  0  0  0  0  0  0  0  0  0  0
  3  2  1  0
  2  1  2  0
  4  2  1  0
  4  9  2  0
  9  8  1  0
  8  7  2  0
  7 13  1  0
 13 12  1  0
 12 11  1  0
 11 10  1  0
 10  6  1  0
  7  6  1  0
  6  5  2  0
  5  4  1  0
M  END
>  <id>  (3) 
7

>  <inchikey>  (3) 
YFNHWMNECPFUGS-UHFFFAOYSA-N

>  <alias>  (3) 
z0904a

>  <name>  (3) 
z0904a

>  <smiles>  (3) 
CC(=O)c1ccc2c(c1)CCCN2

>  <path>  (3) 
/opt/xchem-fragalysis-2/maxwin/BulkDock/TARGETS/Flavi_NS5_RdRp/aligned_files/z0904a/z0904a.pdb

>  <distance_score>  (3) 
None

>  <energy_score>  (3) 
None

>  <compound>  (3) 
YFNHWMNECPFUGS-UHFFFAOYSA-N

>  <compound_id>  (3) 
7

>  <target>  (3) 
Flavi_NS5_RdRp

$$$$
None
     RDKit          3D

 12 13  0  0  0  0  0  0  0  0999 V2000
  -25.7860  -30.1580  -22.6030 N   0  0  0  0  0  0  0  0  0  0  0  0
  -25.4350  -29.2880  -21.6020 C   0  0  0  0  0  0  0  0  0  0  0  0
  -25.4900  -29.6630  -20.2360 C   0  0  0  0  0  0  0  0  0  0  0  0
  -25.2560  -28.8050  -19.2310 N   0  0  0  0  0  0  0  0  0  0  0  0
  -24.9150  -27.5420  -19.5530 C   0  0  0  0  0  0  0  0  0  0  0  0
  -24.7950  -27.0890  -20.8520 C   0  0  0  0  0  0  0  0  0  0  0  0
  -25.0600  -27.9730  -21.8820 C   0  0  0  0  0  0  0  0  0  0  0  0
  -25.6910  -31.0170  -19.8210 N   0  0  0  0  0  0  0  0  0  0  0  0
  -26.5140  -31.9480  -20.4250 C   0  0  0  0  0  0  0  0  0  0  0  0
  -26.3550  -33.1370  -19.7780 C   0  0  0  0  0  0  0  0  0  0  0  0
  -25.4190  -32.9400  -18.7410 C   0  0  0  0  0  0  0  0  0  0  0  0
  -25.0260  -31.6340  -18.7800 C   0  0  0  0  0  0  0  0  0  0  0  0
  2  1  1  0
  2  7  2  0
  7  6  1  0
  6  5  2  0
  5  4  1  0
  4  3  2  0
  3  2  1  0
  8  3  1  0
  8 12  1  0
 12 11  2  0
 11 10  1  0
 10  9  2  0
  9  8  1  0
M  END
>  <id>  (4) 
41

>  <inchikey>  (4) 
QCTDPVKLZRURRV-UHFFFAOYSA-N

>  <alias>  (4) 
d0472b

>  <name>  (4) 
d0472b

>  <smiles>  (4) 
Nc1cccnc1-n1cccc1

>  <path>  (4) 
/opt/xchem-fragalysis-2/maxwin/BulkDock/TARGETS/Flavi_NS5_RdRp/aligned_files/d0472b/d0472b.pdb

>  <distance_score>  (4) 
None

>  <energy_score>  (4) 
None

>  <compound>  (4) 
QCTDPVKLZRURRV-UHFFFAOYSA-N

>  <compound_id>  (4) 
35

>  <target>  (4) 
Flavi_NS5_RdRp

$$$$
Zika_NS5A-x0041_A_1201_1_Zika_NS5A-x0351+A+1112+1
     RDKit          3D

 14 15  0  0  0  0  0  0  0  0999 V2000
  -23.7940  -31.6120  -20.1450 O   0  0  0  0  0  0  0  0  0  0  0  0
  -24.9110  -31.1150  -20.2580 C   0  0  0  0  0  0  0  0  0  0  0  0
  -25.5170  -30.9790  -21.4320 N   0  0  0  0  0  0  0  0  0  0  0  0
  -25.4800  -32.0210  -22.4400 C   0  0  0  0  0  0  0  0  0  0  0  0
  -25.6570  -30.6310  -19.0670 C   0  0  0  0  0  0  0  0  0  0  0  0
  -27.0610  -30.2840  -18.9700 C   0  0  0  0  0  0  0  0  0  0  0  0
  -27.3130  -30.0000  -17.6170 C   0  0  0  0  0  0  0  0  0  0  0  0
  -26.1280  -30.1440  -16.9230 N   0  0  0  0  0  0  0  0  0  0  0  0
  -25.9570  -29.9770  -15.4860 C   0  0  0  0  0  0  0  0  0  0  0  0
  -25.1470  -30.5130  -17.8020 C   0  0  0  0  0  0  0  0  0  0  0  0
  -28.1200  -30.2470  -19.8740 C   0  0  0  0  0  0  0  0  0  0  0  0
  -29.4000  -29.9670  -19.4170 C   0  0  0  0  0  0  0  0  0  0  0  0
  -29.6330  -29.7030  -18.0730 C   0  0  0  0  0  0  0  0  0  0  0  0
  -28.5900  -29.7040  -17.1580 C   0  0  0  0  0  0  0  0  0  0  0  0
  4  3  1  0
  3  2  1  0
  2  1  2  0
  5  2  1  0
  5 10  2  0
 10  8  1  0
  9  8  1  0
  8  7  1  0
  7 14  2  0
 14 13  1  0
 13 12  2  0
 12 11  1  0
 11  6  2  0
  6  5  1  0
  7  6  1  0
M  END
>  <id>  (5) 
82

>  <inchikey>  (5) 
OHXYWSIWHXTWCT-UHFFFAOYSA-N

>  <alias>  (5) 
z0041a

>  <name>  (5) 
z0041a

>  <smiles>  (5) 
CNC(=O)c1cn(C)c2ccccc12

>  <path>  (5) 
/opt/xchem-fragalysis-2/maxwin/BulkDock/TARGETS/Flavi_NS5_RdRp/aligned_files/z0041a/z0041a.pdb

>  <distance_score>  (5) 
None

>  <energy_score>  (5) 
None

>  <compound>  (5) 
OHXYWSIWHXTWCT-UHFFFAOYSA-N

>  <compound_id>  (5) 
68

>  <target>  (5) 
Flavi_NS5_RdRp

$$$$
Zika_NS5A-x0107_A_1110_1_Zika_NS5A-x0351+A+1112+1
     RDKit          3D

 11 12  0  0  0  0  0  0  0  0999 V2000
  -28.7550  -30.5520  -15.3790 C   0  0  0  0  0  0  0  0  0  0  0  0
  -27.7590  -29.6450  -15.8380 O   0  0  0  0  0  0  0  0  0  0  0  0
  -27.1650  -29.9140  -17.0370 C   0  0  0  0  0  0  0  0  0  0  0  0
  -28.0240  -29.9100  -18.1480 C   0  0  0  0  0  0  0  0  0  0  0  0
  -29.4330  -29.7010  -18.3320 C   0  0  0  0  0  0  0  0  0  0  0  0
  -29.6810  -29.8560  -19.6560 C   0  0  0  0  0  0  0  0  0  0  0  0
  -28.5190  -30.1470  -20.3210 N   0  0  0  0  0  0  0  0  0  0  0  0
  -27.4840  -30.1940  -19.4180 C   0  0  0  0  0  0  0  0  0  0  0  0
  -26.1330  -30.4860  -19.5890 C   0  0  0  0  0  0  0  0  0  0  0  0
  -25.3050  -30.4840  -18.4690 C   0  0  0  0  0  0  0  0  0  0  0  0
  -25.8110  -30.1960  -17.2020 C   0  0  0  0  0  0  0  0  0  0  0  0
  2  1  1  0
  3  2  1  0
  3 11  2  0
 11 10  1  0
 10  9  2  0
  9  8  1  0
  8  7  1  0
  7  6  1  0
  6  5  2  0
  5  4  1  0
  4  3  1  0
  8  4  2  0
M  END
>  <id>  (6) 
86

>  <inchikey>  (6) 
LUNOXNMCFPFPMO-UHFFFAOYSA-N

>  <alias>  (6) 
z0107a

>  <name>  (6) 
z0107a

>  <smiles>  (6) 
COc1cccc2[nH]ccc12

>  <path>  (6) 
/opt/xchem-fragalysis-2/maxwin/BulkDock/TARGETS/Flavi_NS5_RdRp/aligned_files/z0107a/z0107a.pdb

>  <distance_score>  (6) 
None

>  <energy_score>  (6) 
None

>  <compound>  (6) 
LUNOXNMCFPFPMO-UHFFFAOYSA-N

>  <compound_id>  (6) 
71

>  <target>  (6) 
Flavi_NS5_RdRp

$$$$
Zika_NS5A-x0111_A_1201_1_Zika_NS5A-x0351+A+1112+1
     RDKit          3D

 12 13  0  0  0  0  0  0  0  0999 V2000
  -25.3030  -31.2440  -20.6040 C   0  0  0  0  0  0  0  0  0  0  0  0
  -26.2370  -30.1530  -20.7810 N   0  0  0  0  0  0  0  0  0  0  0  0
  -27.4370  -30.1020  -20.1780 C   0  0  0  0  0  0  0  0  0  0  0  0
  -27.5310  -30.0830  -18.7350 C   0  0  0  0  0  0  0  0  0  0  0  0
  -28.8350  -30.0110  -18.1720 C   0  0  0  0  0  0  0  0  0  0  0  0
  -29.9450  -29.9760  -19.0390 C   0  0  0  0  0  0  0  0  0  0  0  0
  -29.7370  -29.9860  -20.3820 C   0  0  0  0  0  0  0  0  0  0  0  0
  -28.5250  -30.0410  -20.9520 N   0  0  0  0  0  0  0  0  0  0  0  0
  -26.4230  -30.1010  -17.8430 C   0  0  0  0  0  0  0  0  0  0  0  0
  -26.6070  -30.0480  -16.4900 C   0  0  0  0  0  0  0  0  0  0  0  0
  -27.8780  -29.9700  -15.9560 C   0  0  0  0  0  0  0  0  0  0  0  0
  -28.9740  -29.9500  -16.7680 C   0  0  0  0  0  0  0  0  0  0  0  0
  2  1  1  0
  3  2  1  0
  3  8  2  0
  8  7  1  0
  7  6  2  0
  6  5  1  0
  5 12  2  0
 12 11  1  0
 11 10  2  0
 10  9  1  0
  9  4  2  0
  4  3  1  0
  5  4  1  0
M  END
>  <id>  (7) 
88

>  <inchikey>  (7) 
BILUZSWZYDFPMN-UHFFFAOYSA-N

>  <alias>  (7) 
z0111a

>  <name>  (7) 
z0111a

>  <smiles>  (7) 
CNc1nccc2ccccc12

>  <path>  (7) 
/opt/xchem-fragalysis-2/maxwin/BulkDock/TARGETS/Flavi_NS5_RdRp/aligned_files/z0111a/z0111a.pdb

>  <distance_score>  (7) 
None

>  <energy_score>  (7) 
None

>  <compound>  (7) 
BILUZSWZYDFPMN-UHFFFAOYSA-N

>  <compound_id>  (7) 
72

>  <target>  (7) 
Flavi_NS5_RdRp

$$$$
Zika_NS5A-x0136_A_1017_1_Zika_NS5A-x0351+A+1112+1
     RDKit          3D

 13 14  0  0  0  0  0  0  0  0999 V2000
  -24.4750  -30.7000  -17.9950 O   0  0  0  0  0  0  0  0  0  0  0  0
  -24.5730  -31.1190  -19.1440 C   0  0  0  0  0  0  0  0  0  0  0  0
  -23.6490  -32.1690  -19.6880 C   0  0  0  0  0  0  0  0  0  0  0  0
  -25.4890  -30.6470  -20.0290 N   0  0  0  0  0  0  0  0  0  0  0  0
  -26.8500  -30.2880  -19.8390 C   0  0  0  0  0  0  0  0  0  0  0  0
  -27.4570  -30.1630  -18.5820 C   0  0  0  0  0  0  0  0  0  0  0  0
  -26.9100  -30.1910  -17.3180 N   0  0  0  0  0  0  0  0  0  0  0  0
  -27.9120  -29.9830  -16.4060 C   0  0  0  0  0  0  0  0  0  0  0  0
  -29.0990  -29.8200  -17.0450 C   0  0  0  0  0  0  0  0  0  0  0  0
  -28.8410  -29.9300  -18.4440 C   0  0  0  0  0  0  0  0  0  0  0  0
  -29.6130  -29.8020  -19.5990 C   0  0  0  0  0  0  0  0  0  0  0  0
  -29.0160  -29.8700  -20.8460 C   0  0  0  0  0  0  0  0  0  0  0  0
  -27.6570  -30.1120  -20.9650 C   0  0  0  0  0  0  0  0  0  0  0  0
  3  2  1  0
  2  1  2  0
  4  2  1  0
  5  4  1  0
  5 13  2  0
 13 12  1  0
 12 11  2  0
 11 10  1  0
 10  9  1  0
  9  8  2  0
  8  7  1  0
  7  6  1  0
  6  5  1  0
 10  6  2  0
M  END
>  <id>  (8) 
91

>  <inchikey>  (8) 
DCOHDTHCOCZQTO-UHFFFAOYSA-N

>  <alias>  (8) 
z0136a

>  <name>  (8) 
z0136a

>  <smiles>  (8) 
CC(=O)Nc1cccc2cc[nH]c12

>  <path>  (8) 
/opt/xchem-fragalysis-2/maxwin/BulkDock/TARGETS/Flavi_NS5_RdRp/aligned_files/z0136a/z0136a.pdb

>  <distance_score>  (8) 
None

>  <energy_score>  (8) 
None

>  <compound>  (8) 
DCOHDTHCOCZQTO-UHFFFAOYSA-N

>  <compound_id>  (8) 
73

>  <target>  (8) 
Flavi_NS5_RdRp

$$$$
Zika_NS5A-x0200_A_1112_1_Zika_NS5A-x0351+A+1112+1
     RDKit          3D

 14 15  0  0  0  0  0  0  0  0999 V2000
  -25.5180  -30.8140  -19.9410 O   0  0  0  0  0  0  0  0  0  0  0  0
  -26.4530  -30.0200  -19.9980 C   0  0  0  0  0  0  0  0  0  0  0  0
  -26.2900  -28.7010  -19.9630 N   0  0  0  0  0  0  0  0  0  0  0  0
  -25.0670  -28.0590  -20.4080 C   0  0  0  0  0  0  0  0  0  0  0  0
  -27.8920  -30.4910  -20.0450 C   0  0  1  0  0  0  0  0  0  0  0  0
  -28.4700  -30.4180  -18.7050 C   0  0  0  0  0  0  0  0  0  0  0  0
  -27.7220  -30.2860  -17.5570 N   0  0  0  0  0  0  0  0  0  0  0  0
  -28.4820  -30.2510  -16.5010 C   0  0  0  0  0  0  0  0  0  0  0  0
  -27.9580  -30.1810  -15.1070 C   0  0  0  0  0  0  0  0  0  0  0  0
  -30.1750  -30.3600  -16.8280 S   0  0  0  0  0  0  0  0  0  0  0  0
  -29.8140  -30.4790  -18.5180 C   0  0  0  0  0  0  0  0  0  0  0  0
  -30.8560  -30.3040  -19.5830 C   0  0  0  0  0  0  0  0  0  0  0  0
  -30.2130  -30.2150  -20.9710 C   0  0  0  0  0  0  0  0  0  0  0  0
  -28.8090  -29.6280  -20.9240 C   0  0  0  0  0  0  0  0  0  0  0  0
  4  3  1  0
  3  2  1  0
  2  1  2  0
  5  2  1  1
  5 14  1  0
 14 13  1  0
 13 12  1  0
 12 11  1  0
 11 10  1  0
 10  8  1  0
  9  8  1  0
  8  7  2  0
  7  6  1  0
  6  5  1  0
 11  6  2  0
M  END
>  <id>  (9) 
100

>  <inchikey>  (9) 
VHNBWPBVIQVVTE-SSDOTTSWSA-N

>  <alias>  (9) 
z0200a

>  <name>  (9) 
z0200a

>  <smiles>  (9) 
CNC(=O)[C@@H]1CCCc2sc(C)nc21

>  <path>  (9) 
/opt/xchem-fragalysis-2/maxwin/BulkDock/TARGETS/Flavi_NS5_RdRp/aligned_files/z0200a/z0200a.pdb

>  <distance_score>  (9) 
None

>  <energy_score>  (9) 
None

>  <compound>  (9) 
VHNBWPBVIQVVTE-UHFFFAOYSA-N

>  <compound_id>  (9) 
79

>  <target>  (9) 
Flavi_NS5_RdRp

$$$$
Zika_NS5A-x0211_A_1113_1_Zika_NS5A-x0351+A+1112+1
     RDKit          3D

 14 14  0  0  0  0  0  0  0  0999 V2000
  -26.1990  -31.1140  -22.7050 O   0  0  0  0  0  0  0  0  0  0  0  0
  -25.4400  -31.2080  -21.7450 C   0  0  0  0  0  0  0  0  0  0  0  0
  -24.1640  -31.6450  -21.8600 N   0  0  0  0  0  0  0  0  0  0  0  0
  -23.5970  -32.0810  -23.1290 C   0  0  0  0  0  0  0  0  0  0  0  0
  -22.0380  -31.9840  -23.0990 C   0  0  1  0  0  0  0  0  0  0  0  0
  -21.5440  -31.8850  -21.7560 O   0  0  0  0  0  0  0  0  0  0  0  0
  -21.3930  -33.1630  -23.7940 C   0  0  0  0  0  0  0  0  0  0  0  0
  -25.7870  -30.8530  -20.4680 N   0  0  0  0  0  0  0  0  0  0  0  0
  -27.0380  -30.3840  -20.0010 C   0  0  0  0  0  0  0  0  0  0  0  0
  -27.1570  -30.1750  -18.6330 C   0  0  0  0  0  0  0  0  0  0  0  0
  -28.3980  -29.9090  -18.0800 C   0  0  0  0  0  0  0  0  0  0  0  0
  -29.5160  -29.8390  -18.8790 C   0  0  0  0  0  0  0  0  0  0  0  0
  -29.3970  -30.0030  -20.2420 C   0  0  0  0  0  0  0  0  0  0  0  0
  -28.1630  -30.2660  -20.8110 C   0  0  0  0  0  0  0  0  0  0  0  0
  5  7  1  1
  6  5  1  0
  5  4  1  0
  4  3  1  0
  3  2  1  0
  2  1  2  0
  8  2  1  0
  9  8  1  0
  9 14  2  0
 14 13  1  0
 13 12  2  0
 12 11  1  0
 11 10  2  0
 10  9  1  0
M  END
>  <id>  (10) 
102

>  <inchikey>  (10) 
XEAXHIGGZMUNSO-QMMMGPOBSA-N

>  <alias>  (10) 
z0211a

>  <name>  (10) 
z0211a

>  <smiles>  (10) 
C[C@H](O)CNC(=O)Nc1ccccc1

>  <path>  (10) 
/opt/xchem-fragalysis-2/maxwin/BulkDock/TARGETS/Flavi_NS5_RdRp/aligned_files/z0211a/z0211a.pdb

>  <distance_score>  (10) 
None

>  <energy_score>  (10) 
None

>  <compound>  (10) 
XEAXHIGGZMUNSO-UHFFFAOYSA-N

>  <compound_id>  (10) 
81

>  <target>  (10) 
Flavi_NS5_RdRp

$$$$
Zika_NS5A-x0215_A_1112_1_Zika_NS5A-x0351+A+1112+1
     RDKit          3D

 12 13  0  0  0  0  0  0  0  0999 V2000
  -28.0730  -30.6860  -14.1880 F   0  0  0  0  0  0  0  0  0  0  0  0
  -28.0780  -30.4490  -15.5200 C   0  0  0  0  0  0  0  0  0  0  0  0
  -29.2700  -30.2450  -16.1640 C   0  0  0  0  0  0  0  0  0  0  0  0
  -29.3240  -30.0520  -17.4900 N   0  0  0  0  0  0  0  0  0  0  0  0
  -28.1640  -30.0640  -18.1700 C   0  0  0  0  0  0  0  0  0  0  0  0
  -26.9290  -30.2510  -17.5590 C   0  0  0  0  0  0  0  0  0  0  0  0
  -26.8960  -30.4490  -16.1920 C   0  0  0  0  0  0  0  0  0  0  0  0
  -28.2710  -29.9050  -19.6250 C   0  0  0  0  0  0  0  0  0  0  0  0
  -29.4610  -29.8240  -20.2350 N   0  0  0  0  0  0  0  0  0  0  0  0
  -29.1770  -29.6760  -21.5490 N   0  0  0  0  0  0  0  0  0  0  0  0
  -27.8590  -29.6660  -21.7770 C   0  0  0  0  0  0  0  0  0  0  0  0
  -27.2340  -29.8110  -20.5710 C   0  0  0  0  0  0  0  0  0  0  0  0
  2  1  1  0
  2  7  2  0
  7  6  1  0
  6  5  2  0
  5  4  1  0
  4  3  2  0
  3  2  1  0
  8  5  1  0
  8 12  1  0
 12 11  2  0
 11 10  1  0
 10  9  1  0
  9  8  2  0
M  END
>  <id>  (11) 
104

>  <inchikey>  (11) 
ADBMBWBQQBJNNZ-UHFFFAOYSA-N

>  <alias>  (11) 
z0215a

>  <name>  (11) 
z0215a

>  <smiles>  (11) 
Fc1ccc(-c2cc[nH]n2)nc1

>  <path>  (11) 
/opt/xchem-fragalysis-2/maxwin/BulkDock/TARGETS/Flavi_NS5_RdRp/aligned_files/z0215a/z0215a.pdb

>  <distance_score>  (11) 
None

>  <energy_score>  (11) 
None

>  <compound>  (11) 
ADBMBWBQQBJNNZ-UHFFFAOYSA-N

>  <compound_id>  (11) 
82

>  <target>  (11) 
Flavi_NS5_RdRp

$$$$
Zika_NS5A-x0221_A_1112_1_Zika_NS5A-x0351+A+1112+1
     RDKit          3D

 18 19  0  0  0  0  0  0  0  0999 V2000
  -25.4080  -27.4780  -21.0560 F   0  0  0  0  0  0  0  0  0  0  0  0
  -25.7410  -28.1430  -22.1890 C   0  0  0  0  0  0  0  0  0  0  0  0
  -25.3090  -27.6380  -23.3910 C   0  0  0  0  0  0  0  0  0  0  0  0
  -25.5500  -28.2750  -24.5430 N   0  0  0  0  0  0  0  0  0  0  0  0
  -26.2310  -29.4240  -24.4820 C   0  0  0  0  0  0  0  0  0  0  0  0
  -26.6990  -29.9870  -23.3080 C   0  0  0  0  0  0  0  0  0  0  0  0
  -26.4620  -29.3240  -22.1060 C   0  0  0  0  0  0  0  0  0  0  0  0
  -27.0190  -29.9400  -20.8600 C   0  0  0  0  0  0  0  0  0  0  0  0
  -26.9940  -31.1560  -20.6880 O   0  0  0  0  0  0  0  0  0  0  0  0
  -27.5210  -29.0760  -19.9520 N   0  0  0  0  0  0  0  0  0  0  0  0
  -28.0240  -29.5100  -18.6960 C   0  0  0  0  0  0  0  0  0  0  0  0
  -27.2170  -29.3670  -17.5620 C   0  0  0  0  0  0  0  0  0  0  0  0
  -25.8040  -28.8510  -17.6610 C   0  0  0  0  0  0  0  0  0  0  0  0
  -29.3200  -30.0320  -18.6040 C   0  0  0  0  0  0  0  0  0  0  0  0
  -29.7990  -30.6560  -19.7130 O   0  0  0  0  0  0  0  0  0  0  0  0
  -29.8190  -30.3850  -17.3540 C   0  0  0  0  0  0  0  0  0  0  0  0
  -29.0390  -30.2280  -16.2220 C   0  0  0  0  0  0  0  0  0  0  0  0
  -27.7530  -29.7330  -16.3280 C   0  0  0  0  0  0  0  0  0  0  0  0
 13 12  1  0
 12 18  2  0
 18 17  1  0
 17 16  2  0
 16 14  1  0
 15 14  1  0
 14 11  2  0
 12 11  1  0
 11 10  1  0
 10  8  1  0
  9  8  2  0
  8  7  1  0
  7  6  2  0
  6  5  1  0
  5  4  2  0
  4  3  1  0
  3  2  2  0
  7  2  1  0
  2  1  1  0
M  END
>  <id>  (12) 
105

>  <inchikey>  (12) 
PDGRBWXZTBUJKY-UHFFFAOYSA-N

>  <alias>  (12) 
z0221a

>  <name>  (12) 
z0221a

>  <smiles>  (12) 
Cc1cccc(O)c1NC(=O)c1ccncc1F

>  <path>  (12) 
/opt/xchem-fragalysis-2/maxwin/BulkDock/TARGETS/Flavi_NS5_RdRp/aligned_files/z0221a/z0221a.pdb

>  <distance_score>  (12) 
None

>  <energy_score>  (12) 
None

>  <compound>  (12) 
PDGRBWXZTBUJKY-UHFFFAOYSA-N

>  <compound_id>  (12) 
83

>  <target>  (12) 
Flavi_NS5_RdRp

$$$$
Zika_NS5A-x0364_A_1201_1_Zika_NS5A-x0351+A+1112+1
     RDKit          3D

 14 15  0  0  0  0  0  0  0  0999 V2000
  -21.5580  -27.4770  -20.1280 O   0  0  0  0  0  0  0  0  0  0  0  0
  -22.4970  -26.8890  -19.6080 C   0  0  0  0  0  0  0  0  0  0  0  0
  -22.3030  -25.6090  -18.8520 C   0  0  0  0  0  0  0  0  0  0  0  0
  -23.7430  -27.3820  -19.6330 N   0  0  0  0  0  0  0  0  0  0  0  0
  -24.9250  -26.5790  -19.9430 C   0  0  2  0  0  0  0  0  0  0  0  0
  -26.0820  -26.9280  -19.0170 C   0  0  0  0  0  0  0  0  0  0  0  0
  -26.7870  -28.2090  -19.4080 C   0  0  0  0  0  0  0  0  0  0  0  0
  -26.8480  -28.6100  -20.7500 C   0  0  0  0  0  0  0  0  0  0  0  0
  -26.0350  -27.9970  -21.6530 N   0  0  0  0  0  0  0  0  0  0  0  0
  -25.3240  -26.7650  -21.3970 C   0  0  0  0  0  0  0  0  0  0  0  0
  -27.5350  -28.9200  -18.4700 C   0  0  0  0  0  0  0  0  0  0  0  0
  -28.3720  -29.9530  -18.8610 C   0  0  0  0  0  0  0  0  0  0  0  0
  -28.4630  -30.3030  -20.1880 C   0  0  0  0  0  0  0  0  0  0  0  0
  -27.6980  -29.6470  -21.1390 C   0  0  0  0  0  0  0  0  0  0  0  0
  3  2  1  0
  2  1  2  0
  4  2  1  0
  5  4  1  1
  5 10  1  0
 10  9  1  0
  9  8  1  0
  8 14  2  0
 14 13  1  0
 13 12  2  0
 12 11  1  0
 11  7  2  0
  8  7  1  0
  7  6  1  0
  6  5  1  0
M  END
>  <id>  (13) 
118

>  <inchikey>  (13) 
HCEIEGOMGWEGOJ-SNVBAGLBSA-N

>  <alias>  (13) 
z0364a

>  <name>  (13) 
z0364a

>  <smiles>  (13) 
CC(=O)N[C@H]1CNc2ccccc2C1

>  <path>  (13) 
/opt/xchem-fragalysis-2/maxwin/BulkDock/TARGETS/Flavi_NS5_RdRp/aligned_files/z0364a/z0364a.pdb

>  <distance_score>  (13) 
None

>  <energy_score>  (13) 
None

>  <compound>  (13) 
HCEIEGOMGWEGOJ-UHFFFAOYSA-N

>  <compound_id>  (13) 
92

>  <target>  (13) 
Flavi_NS5_RdRp

$$$$
Zika_NS5A-x0384_A_1112_1_Zika_NS5A-x0351+A+1112+1
     RDKit          3D

 11 11  0  0  0  0  0  0  0  0999 V2000
  -26.1330  -30.9650  -22.6040 O   0  0  0  0  0  0  0  0  0  0  0  0
  -26.3470  -30.8210  -21.4090 C   0  0  0  0  0  0  0  0  0  0  0  0
  -25.2710  -31.1060  -20.3880 C   0  0  0  0  0  0  0  0  0  0  0  0
  -23.9460  -31.5700  -21.0010 C   0  0  0  0  0  0  0  0  0  0  0  0
  -27.5950  -30.4510  -20.9770 N   0  0  0  0  0  0  0  0  0  0  0  0
  -27.9590  -30.2470  -19.6650 C   0  0  0  0  0  0  0  0  0  0  0  0
  -29.5920  -29.8580  -19.2640 S   0  0  0  0  0  0  0  0  0  0  0  0
  -29.1260  -29.8320  -17.6060 C   0  0  0  0  0  0  0  0  0  0  0  0
  -27.8110  -30.1120  -17.4610 C   0  0  0  0  0  0  0  0  0  0  0  0
  -27.1350  -30.3400  -18.6510 N   0  0  0  0  0  0  0  0  0  0  0  0
  -27.0710  -30.2360  -16.1650 C   0  0  0  0  0  0  0  0  0  0  0  0
  4  3  1  0
  3  2  1  0
  2  1  2  0
  5  2  1  0
  6  5  1  0
  6 10  2  0
 10  9  1  0
 11  9  1  0
  9  8  2  0
  8  7  1  0
  7  6  1  0
M  END
>  <id>  (14) 
120

>  <inchikey>  (14) 
AIOZNYOAFODHNA-UHFFFAOYSA-N

>  <alias>  (14) 
z0384a

>  <name>  (14) 
z0384a

>  <smiles>  (14) 
CCC(=O)Nc1nc(C)cs1

>  <path>  (14) 
/opt/xchem-fragalysis-2/maxwin/BulkDock/TARGETS/Flavi_NS5_RdRp/aligned_files/z0384a/z0384a.pdb

>  <distance_score>  (14) 
None

>  <energy_score>  (14) 
None

>  <compound>  (14) 
AIOZNYOAFODHNA-UHFFFAOYSA-N

>  <compound_id>  (14) 
94

>  <target>  (14) 
Flavi_NS5_RdRp

$$$$
Zika_NS5A-x0386_A_1112_1_Zika_NS5A-x0351+A+1112+1
     RDKit          3D

 17 18  0  0  0  0  0  0  0  0999 V2000
  -26.5950  -27.8360  -19.6220 O   0  0  0  0  0  0  0  0  0  0  0  0
  -26.7690  -28.8050  -20.3600 C   0  0  0  0  0  0  0  0  0  0  0  0
  -26.2180  -28.8150  -21.7500 C   0  0  0  0  0  0  0  0  0  0  0  0
  -25.0050  -28.1910  -22.0180 C   0  0  0  0  0  0  0  0  0  0  0  0
  -24.5640  -28.1300  -23.3250 C   0  0  0  0  0  0  0  0  0  0  0  0
  -25.2410  -28.6330  -24.3630 N   0  0  0  0  0  0  0  0  0  0  0  0
  -26.3970  -29.2450  -24.0900 C   0  0  0  0  0  0  0  0  0  0  0  0
  -26.9190  -29.3660  -22.8160 C   0  0  0  0  0  0  0  0  0  0  0  0
  -27.4790  -29.8990  -19.9940 N   0  0  0  0  0  0  0  0  0  0  0  0
  -28.1380  -30.0670  -18.7540 C   0  0  0  0  0  0  0  0  0  0  0  0
  -29.5270  -30.2500  -18.7600 C   0  0  0  0  0  0  0  0  0  0  0  0
  -30.3020  -30.3550  -20.0470 C   0  0  0  0  0  0  0  0  0  0  0  0
  -27.4320  -30.0220  -17.5510 C   0  0  0  0  0  0  0  0  0  0  0  0
  -28.1290  -30.1700  -16.3760 C   0  0  0  0  0  0  0  0  0  0  0  0
  -27.4250  -30.2480  -15.2080 F   0  0  0  0  0  0  0  0  0  0  0  0
  -29.4840  -30.3130  -16.3330 C   0  0  0  0  0  0  0  0  0  0  0  0
  -30.1720  -30.3540  -17.5300 C   0  0  0  0  0  0  0  0  0  0  0  0
 12 11  1  0
 11 17  2  0
 17 16  1  0
 16 14  2  0
 15 14  1  0
 14 13  1  0
 13 10  2  0
 11 10  1  0
 10  9  1  0
  9  2  1  0
  2  1  2  0
  3  2  1  0
  3  8  2  0
  8  7  1  0
  7  6  2  0
  6  5  1  0
  5  4  2  0
  4  3  1  0
M  END
>  <id>  (15) 
121

>  <inchikey>  (15) 
CUFWRVYZYQAQCS-UHFFFAOYSA-N

>  <alias>  (15) 
z0386a

>  <name>  (15) 
z0386a

>  <smiles>  (15) 
Cc1ccc(F)cc1NC(=O)c1ccncc1

>  <path>  (15) 
/opt/xchem-fragalysis-2/maxwin/BulkDock/TARGETS/Flavi_NS5_RdRp/aligned_files/z0386a/z0386a.pdb

>  <distance_score>  (15) 
None

>  <energy_score>  (15) 
None

>  <compound>  (15) 
CUFWRVYZYQAQCS-UHFFFAOYSA-N

>  <compound_id>  (15) 
95

>  <target>  (15) 
Flavi_NS5_RdRp

$$$$
Zika_NS5A-x0411_A_1107_1_Zika_NS5A-x0351+A+1112+1
     RDKit          3D

 18 19  0  0  0  0  0  0  0  0999 V2000
  -26.1440  -31.6230  -22.2200 O   0  0  0  0  0  0  0  0  0  0  0  0
  -25.2710  -31.3850  -21.3840 C   0  0  0  0  0  0  0  0  0  0  0  0
  -25.5410  -30.8030  -20.1630 N   0  0  0  0  0  0  0  0  0  0  0  0
  -26.8110  -30.4430  -19.6260 C   0  0  0  0  0  0  0  0  0  0  0  0
  -26.9660  -30.4870  -18.2440 C   0  0  0  0  0  0  0  0  0  0  0  0
  -28.2280  -30.3030  -17.7120 C   0  0  0  0  0  0  0  0  0  0  0  0
  -29.3150  -30.0900  -18.4540 N   0  0  0  0  0  0  0  0  0  0  0  0
  -29.1430  -30.0210  -19.7810 C   0  0  0  0  0  0  0  0  0  0  0  0
  -27.9240  -30.1710  -20.4110 C   0  0  0  0  0  0  0  0  0  0  0  0
  -23.9230  -31.6330  -21.5750 N   0  0  0  0  0  0  0  0  0  0  0  0
  -23.2810  -32.2240  -22.7030 C   0  0  0  0  0  0  0  0  0  0  0  0
  -21.8900  -32.3380  -22.7020 C   0  0  0  0  0  0  0  0  0  0  0  0
  -21.2380  -32.9890  -23.7400 C   0  0  0  0  0  0  0  0  0  0  0  0
  -24.0040  -32.7560  -23.7770 C   0  0  0  0  0  0  0  0  0  0  0  0
  -23.3530  -33.4130  -24.8110 C   0  0  0  0  0  0  0  0  0  0  0  0
  -21.9710  -33.5320  -24.7940 C   0  0  0  0  0  0  0  0  0  0  0  0
  -21.3580  -34.1360  -25.8640 O   0  0  0  0  0  0  0  0  0  0  0  0
  -21.6580  -35.5090  -26.1570 C   0  0  0  0  0  0  0  0  0  0  0  0
 18 17  1  0
 17 16  1  0
 16 13  1  0
 13 12  2  0
 12 11  1  0
 11 10  1  0
 10  2  1  0
  2  1  2  0
  3  2  1  0
  4  3  1  0
  4  9  2  0
  9  8  1  0
  8  7  2  0
  7  6  1  0
  6  5  2  0
  5  4  1  0
 14 11  2  0
 15 14  1  0
 16 15  2  0
M  END
>  <id>  (16) 
123

>  <inchikey>  (16) 
IFKGCTGEAFOLOL-UHFFFAOYSA-N

>  <alias>  (16) 
z0411a

>  <name>  (16) 
z0411a

>  <smiles>  (16) 
COc1ccc(NC(=O)Nc2ccncc2)cc1

>  <path>  (16) 
/opt/xchem-fragalysis-2/maxwin/BulkDock/TARGETS/Flavi_NS5_RdRp/aligned_files/z0411a/z0411a.pdb

>  <distance_score>  (16) 
None

>  <energy_score>  (16) 
None

>  <compound>  (16) 
IFKGCTGEAFOLOL-UHFFFAOYSA-N

>  <compound_id>  (16) 
97

>  <target>  (16) 
Flavi_NS5_RdRp

$$$$
Zika_NS5A-x0496_A_1013_1_Zika_NS5A-x0351+A+1112+1
     RDKit          3D

 15 16  0  0  0  0  0  0  0  0999 V2000
  -25.9590  -28.7680  -25.1600 N   0  0  0  0  0  0  0  0  0  0  0  0
  -26.0420  -28.4970  -23.8550 C   0  0  0  0  0  0  0  0  0  0  0  0
  -25.1620  -27.1780  -23.1240 S   0  0  0  0  0  0  0  0  0  0  0  0
  -26.8550  -29.1130  -23.0370 N   0  0  0  0  0  0  0  0  0  0  0  0
  -26.8350  -28.5260  -21.7860 C   0  0  0  0  0  0  0  0  0  0  0  0
  -26.0000  -27.4500  -21.6360 C   0  0  0  0  0  0  0  0  0  0  0  0
  -25.8900  -26.4610  -20.5040 C   0  0  0  0  0  0  0  0  0  0  0  0
  -27.7430  -29.0820  -20.7730 C   0  0  0  0  0  0  0  0  0  0  0  0
  -29.0480  -29.3700  -21.1360 C   0  0  0  0  0  0  0  0  0  0  0  0
  -29.9530  -29.8900  -20.2210 C   0  0  0  0  0  0  0  0  0  0  0  0
  -31.3530  -30.2010  -20.6760 C   0  0  0  0  0  0  0  0  0  0  0  0
  -29.5450  -30.1300  -18.9000 C   0  0  0  0  0  0  0  0  0  0  0  0
  -30.5170  -30.6340  -17.8710 C   0  0  0  0  0  0  0  0  0  0  0  0
  -28.2350  -29.8430  -18.5440 C   0  0  0  0  0  0  0  0  0  0  0  0
  -27.3440  -29.3200  -19.4600 C   0  0  0  0  0  0  0  0  0  0  0  0
  7  6  1  0
  6  3  1  0
  3  2  1  0
  2  1  1  0
  4  2  2  0
  5  4  1  0
  6  5  2  0
  8  5  1  0
  8 15  2  0
 15 14  1  0
 14 12  2  0
 13 12  1  0
 12 10  1  0
 11 10  1  0
 10  9  2  0
  9  8  1  0
M  END
>  <id>  (17) 
136

>  <inchikey>  (17) 
TYFLPTHRTUYMKD-UHFFFAOYSA-N

>  <alias>  (17) 
z0496a

>  <name>  (17) 
z0496a

>  <smiles>  (17) 
Cc1ccc(-c2nc(N)sc2C)cc1C

>  <path>  (17) 
/opt/xchem-fragalysis-2/maxwin/BulkDock/TARGETS/Flavi_NS5_RdRp/aligned_files/z0496a/z0496a.pdb

>  <distance_score>  (17) 
None

>  <energy_score>  (17) 
None

>  <compound>  (17) 
TYFLPTHRTUYMKD-UHFFFAOYSA-N

>  <compound_id>  (17) 
104

>  <target>  (17) 
Flavi_NS5_RdRp

$$$$
Zika_NS5A-x0519_A_1101_1_Zika_NS5A-x0351+A+1112+1
     RDKit          3D

 18 19  0  0  0  0  0  0  0  0999 V2000
  -27.0300  -32.7900  -23.7430 O   0  0  0  0  0  0  0  0  0  0  0  0
  -26.4970  -31.6890  -23.7610 C   0  0  0  0  0  0  0  0  0  0  0  0
  -26.7060  -30.6990  -24.6870 N   0  0  0  0  0  0  0  0  0  0  0  0
  -25.9630  -29.5610  -24.4020 C   0  0  0  0  0  0  0  0  0  0  0  0
  -25.9710  -28.5220  -25.0550 O   0  0  0  0  0  0  0  0  0  0  0  0
  -25.2560  -29.8060  -23.2780 N   0  0  0  0  0  0  0  0  0  0  0  0
  -25.4950  -31.1470  -22.7390 C   0  0  2  0  0  0  0  0  0  0  0  0
  -24.2050  -31.9720  -22.7210 C   0  0  0  0  0  0  0  0  0  0  0  0
  -26.1140  -31.1110  -21.3450 C   0  0  0  0  0  0  0  0  0  0  0  0
  -27.2380  -30.0820  -21.1900 C   0  0  0  0  0  0  0  0  0  0  0  0
  -27.7710  -30.0780  -19.7820 C   0  0  0  0  0  0  0  0  0  0  0  0
  -29.0850  -30.4210  -19.5110 C   0  0  0  0  0  0  0  0  0  0  0  0
  -29.5550  -30.4840  -18.2110 C   0  0  0  0  0  0  0  0  0  0  0  0
  -26.9350  -29.7890  -18.7170 C   0  0  0  0  0  0  0  0  0  0  0  0
  -27.3860  -29.8490  -17.4130 C   0  0  0  0  0  0  0  0  0  0  0  0
  -28.7000  -30.1960  -17.1580 C   0  0  0  0  0  0  0  0  0  0  0  0
  -29.1520  -30.2400  -15.8650 O   0  0  0  0  0  0  0  0  0  0  0  0
  -28.2380  -30.6540  -14.8460 C   0  0  0  0  0  0  0  0  0  0  0  0
 18 17  1  0
 17 16  1  0
 16 13  1  0
 13 12  2  0
 12 11  1  0
 11 10  1  0
 10  9  1  0
  9  7  1  0
  7  8  1  1
  7  6  1  0
  6  4  1  0
  5  4  2  0
  4  3  1  0
  3  2  1  0
  7  2  1  0
  2  1  2  0
 14 11  2  0
 15 14  1  0
 16 15  2  0
M  END
>  <id>  (18) 
140

>  <inchikey>  (18) 
HYRDVXQOZUFAFW-ZDUSSCGKSA-N

>  <alias>  (18) 
z0519a

>  <name>  (18) 
z0519a

>  <smiles>  (18) 
COc1ccc(CC[C@]2(C)NC(=O)NC2=O)cc1

>  <path>  (18) 
/opt/xchem-fragalysis-2/maxwin/BulkDock/TARGETS/Flavi_NS5_RdRp/aligned_files/z0519a/z0519a.pdb

>  <distance_score>  (18) 
None

>  <energy_score>  (18) 
None

>  <compound>  (18) 
HYRDVXQOZUFAFW-UHFFFAOYSA-N

>  <compound_id>  (18) 
106

>  <target>  (18) 
Flavi_NS5_RdRp

$$$$
Zika_NS5A-x0521_A_1112_1_Zika_NS5A-x0351+A+1112+1
     RDKit          3D

 15 16  0  0  0  0  0  0  0  0999 V2000
  -23.6500  -32.2510  -21.0470 C   0  0  0  0  0  0  0  0  0  0  0  0
  -24.9600  -31.6670  -20.6230 C   0  0  0  0  0  0  0  0  0  0  0  0
  -25.2400  -31.5020  -19.2520 C   0  0  0  0  0  0  0  0  0  0  0  0
  -25.7790  -31.2700  -21.5910 N   0  0  0  0  0  0  0  0  0  0  0  0
  -26.9060  -30.6550  -21.1980 C   0  0  0  0  0  0  0  0  0  0  0  0
  -27.2160  -30.4560  -19.8740 N   0  0  0  0  0  0  0  0  0  0  0  0
  -28.4100  -29.7860  -19.7700 N   0  0  0  0  0  0  0  0  0  0  0  0
  -28.7230  -29.6260  -21.0370 C   0  0  0  0  0  0  0  0  0  0  0  0
  -27.8600  -30.1260  -21.9580 N   0  0  0  0  0  0  0  0  0  0  0  0
  -26.4000  -30.8680  -18.8430 C   0  0  0  0  0  0  0  0  0  0  0  0
  -26.7210  -30.6310  -17.5040 N   0  0  0  0  0  0  0  0  0  0  0  0
  -25.6540  -30.7520  -16.4980 C   0  0  0  0  0  0  0  0  0  0  0  0
  -24.5430  -29.7450  -16.7020 C   0  0  0  0  0  0  0  0  0  0  0  0
  -27.8750  -29.8010  -17.1030 C   0  0  0  0  0  0  0  0  0  0  0  0
  -29.1800  -30.5550  -17.1140 C   0  0  0  0  0  0  0  0  0  0  0  0
 15 14  1  0
 14 11  1  0
 12 11  1  0
 13 12  1  0
 11 10  1  0
 10  3  2  0
  3  2  1  0
  2  1  1  0
  4  2  2  0
  5  4  1  0
  5  9  2  0
  9  8  1  0
  8  7  2  0
  7  6  1  0
 10  6  1  0
  6  5  1  0
M  END
>  <id>  (19) 
141

>  <inchikey>  (19) 
GSNOZLZNQMLSKJ-UHFFFAOYSA-N

>  <alias>  (19) 
z0521a

>  <name>  (19) 
z0521a

>  <smiles>  (19) 
CCN(CC)c1cc(C)nc2ncnn12

>  <path>  (19) 
/opt/xchem-fragalysis-2/maxwin/BulkDock/TARGETS/Flavi_NS5_RdRp/aligned_files/z0521a/z0521a.pdb

>  <distance_score>  (19) 
None

>  <energy_score>  (19) 
None

>  <compound>  (19) 
GSNOZLZNQMLSKJ-UHFFFAOYSA-N

>  <compound_id>  (19) 
107

>  <target>  (19) 
Flavi_NS5_RdRp

$$$$
Zika_NS5A-x0581_A_1201_1_Zika_NS5A-x0351+A+1112+1
     RDKit          3D

 14 15  0  0  0  0  0  0  0  0999 V2000
  -26.7400  -32.6010  -20.4590 O   0  0  0  0  0  0  0  0  0  0  0  0
  -26.0810  -31.5830  -20.3280 C   0  0  0  0  0  0  0  0  0  0  0  0
  -24.5830  -31.6270  -20.2760 C   0  0  0  0  0  0  0  0  0  0  0  0
  -26.6890  -30.3820  -20.1940 N   0  0  0  0  0  0  0  0  0  0  0  0
  -26.5690  -29.6140  -18.9480 C   0  0  0  0  0  0  0  0  0  0  0  0
  -27.6510  -29.9690  -17.9560 C   0  0  0  0  0  0  0  0  0  0  0  0
  -27.3570  -29.9190  -16.5950 C   0  0  0  0  0  0  0  0  0  0  0  0
  -28.3260  -30.1930  -15.6470 C   0  0  0  0  0  0  0  0  0  0  0  0
  -29.6050  -30.5180  -16.0390 C   0  0  0  0  0  0  0  0  0  0  0  0
  -29.9270  -30.5860  -17.3840 C   0  0  0  0  0  0  0  0  0  0  0  0
  -28.9520  -30.3250  -18.3320 C   0  0  0  0  0  0  0  0  0  0  0  0
  -29.3330  -30.5220  -19.6470 O   0  0  0  0  0  0  0  0  0  0  0  0
  -28.9520  -29.5270  -20.6230 C   0  0  0  0  0  0  0  0  0  0  0  0
  -27.5780  -29.7750  -21.1880 C   0  0  0  0  0  0  0  0  0  0  0  0
  3  2  1  0
  2  1  2  0
  4  2  1  0
  4 14  1  0
 14 13  1  0
 13 12  1  0
 12 11  1  0
 11 10  2  0
 10  9  1  0
  9  8  2  0
  8  7  1  0
  7  6  2  0
 11  6  1  0
  6  5  1  0
  5  4  1  0
M  END
>  <id>  (20) 
144

>  <inchikey>  (20) 
SCYVZWVJHDZYSQ-UHFFFAOYSA-N

>  <alias>  (20) 
z0581a

>  <name>  (20) 
z0581a

>  <smiles>  (20) 
CC(=O)N1CCOc2ccccc2C1

>  <path>  (20) 
/opt/xchem-fragalysis-2/maxwin/BulkDock/TARGETS/Flavi_NS5_RdRp/aligned_files/z0581a/z0581a.pdb

>  <distance_score>  (20) 
None

>  <energy_score>  (20) 
None

>  <compound>  (20) 
SCYVZWVJHDZYSQ-UHFFFAOYSA-N

>  <compound_id>  (20) 
109

>  <target>  (20) 
Flavi_NS5_RdRp

$$$$
Zika_NS5A-x0628_A_1112_1_Zika_NS5A-x0351+A+1112+1
     RDKit          3D

 10 10  0  0  0  0  0  0  0  0999 V2000
  -29.1830  -29.3890  -20.8360 O   0  0  0  0  0  0  0  0  0  0  0  0
  -28.1970  -29.5270  -20.1600 C   0  0  0  0  0  0  0  0  0  0  0  0
  -26.9720  -29.6660  -20.6670 O   0  0  0  0  0  0  0  0  0  0  0  0
  -26.4790  -31.0340  -20.7950 C   0  0  0  0  0  0  0  0  0  0  0  0
  -26.0580  -31.2330  -22.1800 C   0  0  0  0  0  0  0  0  0  0  0  0
  -28.1980  -29.5800  -18.6890 C   0  0  0  0  0  0  0  0  0  0  0  0
  -27.1200  -29.2890  -17.8670 C   0  0  0  0  0  0  0  0  0  0  0  0
  -27.5350  -29.4600  -16.6080 N   0  0  0  0  0  0  0  0  0  0  0  0
  -28.8280  -29.8460  -16.5440 N   0  0  0  0  0  0  0  0  0  0  0  0
  -29.2380  -29.9220  -17.8060 C   0  0  0  0  0  0  0  0  0  0  0  0
  5  4  1  0
  4  3  1  0
  3  2  1  0
  2  1  2  0
  6  2  1  0
  6 10  1  0
 10  9  2  0
  9  8  1  0
  8  7  1  0
  7  6  2  0
M  END
>  <id>  (21) 
150

>  <inchikey>  (21) 
KACZQOKEFKFNDB-UHFFFAOYSA-N

>  <alias>  (21) 
z0628a

>  <name>  (21) 
z0628a

>  <smiles>  (21) 
CCOC(=O)c1cn[nH]c1

>  <path>  (21) 
/opt/xchem-fragalysis-2/maxwin/BulkDock/TARGETS/Flavi_NS5_RdRp/aligned_files/z0628a/z0628a.pdb

>  <distance_score>  (21) 
None

>  <energy_score>  (21) 
None

>  <compound>  (21) 
KACZQOKEFKFNDB-UHFFFAOYSA-N

>  <compound_id>  (21) 
112

>  <target>  (21) 
Flavi_NS5_RdRp

$$$$
Zika_NS5A-x0637_A_1013_1_Zika_NS5A-x0351+A+1112+1
     RDKit          3D

 14 15  0  0  0  0  0  0  0  0999 V2000
  -29.6920  -30.0390  -19.3490 C   0  0  0  0  0  0  0  0  0  0  0  0
  -28.5950  -29.8640  -18.3510 C   0  0  0  0  0  0  0  0  0  0  0  0
  -27.3390  -29.9320  -18.8240 N   0  0  0  0  0  0  0  0  0  0  0  0
  -26.3240  -29.9050  -17.9430 C   0  0  0  0  0  0  0  0  0  0  0  0
  -26.5060  -29.7820  -16.5610 C   0  0  0  0  0  0  0  0  0  0  0  0
  -27.8040  -29.6930  -16.0930 C   0  0  0  0  0  0  0  0  0  0  0  0
  -28.8610  -29.7290  -16.9880 C   0  0  0  0  0  0  0  0  0  0  0  0
  -25.0850  -30.1020  -18.4480 N   0  0  0  0  0  0  0  0  0  0  0  0
  -24.6730  -31.3810  -18.9680 C   0  0  0  0  0  0  0  0  0  0  0  0
  -23.2240  -31.6790  -18.6300 C   0  0  2  0  0  0  0  0  0  0  0  0
  -22.7780  -33.0850  -19.0340 C   0  0  0  0  0  0  0  0  0  0  0  0
  -21.9460  -33.6580  -17.9330 N   0  0  0  0  0  0  0  0  0  0  0  0
  -21.7130  -32.5810  -16.9560 C   0  0  0  0  0  0  0  0  0  0  0  0
  -22.9510  -31.6590  -17.1210 C   0  0  0  0  0  0  0  0  0  0  0  0
  2  1  1  0
  2  7  2  0
  7  6  1  0
  6  5  2  0
  5  4  1  0
  8  4  1  0
  9  8  1  0
 10  9  1  1
 10 14  1  0
 14 13  1  0
 13 12  1  0
 12 11  1  0
 11 10  1  0
  4  3  2  0
  3  2  1  0
M  END
>  <id>  (22) 
151

>  <inchikey>  (22) 
GOGVDMSQODUATE-JTQLQIEISA-N

>  <alias>  (22) 
z0637a

>  <name>  (22) 
z0637a

>  <smiles>  (22) 
Cc1cccc(NC[C@H]2CCNC2)n1

>  <path>  (22) 
/opt/xchem-fragalysis-2/maxwin/BulkDock/TARGETS/Flavi_NS5_RdRp/aligned_files/z0637a/z0637a.pdb

>  <distance_score>  (22) 
None

>  <energy_score>  (22) 
None

>  <compound>  (22) 
GOGVDMSQODUATE-UHFFFAOYSA-N

>  <compound_id>  (22) 
113

>  <target>  (22) 
Flavi_NS5_RdRp

$$$$
Zika_NS5A-x0653_A_1101_1_Zika_NS5A-x0351+A+1112+1
     RDKit          3D

 13 14  0  0  0  0  0  0  0  0999 V2000
  -24.1490  -31.8770  -18.9320 O   0  0  0  0  0  0  0  0  0  0  0  0
  -25.5230  -31.9770  -19.3000 C   0  0  0  0  0  0  0  0  0  0  0  0
  -25.8440  -30.9390  -20.3670 C   0  0  1  0  0  0  0  0  0  0  0  0
  -26.3600  -31.5780  -21.6530 C   0  0  0  0  0  0  0  0  0  0  0  0
  -26.7580  -30.3950  -22.4550 C   0  0  0  0  0  0  0  0  0  0  0  0
  -27.5210  -29.5230  -21.4840 C   0  0  0  0  0  0  0  0  0  0  0  0
  -26.9070  -29.8150  -20.0970 C   0  0  1  0  0  0  0  0  0  0  0  0
  -27.9250  -30.2220  -19.0740 C   0  0  0  0  0  0  0  0  0  0  0  0
  -29.0920  -30.9680  -19.2680 C   0  0  0  0  0  0  0  0  0  0  0  0
  -29.7210  -31.2050  -18.1370 N   0  0  0  0  0  0  0  0  0  0  0  0
  -28.9580  -30.6050  -17.1970 N   0  0  0  0  0  0  0  0  0  0  0  0
  -29.3110  -30.7140  -15.7880 C   0  0  0  0  0  0  0  0  0  0  0  0
  -27.8870  -29.9990  -17.7240 C   0  0  0  0  0  0  0  0  0  0  0  0
  2  1  1  0
  3  2  1  1
  3  7  1  0
  7  8  1  1
  8 13  2  0
 13 11  1  0
 12 11  1  0
 11 10  1  0
 10  9  2  0
  9  8  1  0
  7  6  1  0
  6  5  1  0
  5  4  1  0
  4  3  1  0
M  END
>  <id>  (23) 
153

>  <inchikey>  (23) 
FTZBADNQLNPVCE-PSASIEDQSA-N

>  <alias>  (23) 
z0653a

>  <name>  (23) 
z0653a

>  <smiles>  (23) 
Cn1cc([C@@H]2CCC[C@@H]2CO)cn1

>  <path>  (23) 
/opt/xchem-fragalysis-2/maxwin/BulkDock/TARGETS/Flavi_NS5_RdRp/aligned_files/z0653a/z0653a.pdb

>  <distance_score>  (23) 
None

>  <energy_score>  (23) 
None

>  <compound>  (23) 
FTZBADNQLNPVCE-UHFFFAOYSA-N

>  <compound_id>  (23) 
115

>  <target>  (23) 
Flavi_NS5_RdRp

$$$$
Zika_NS5A-x0881_A_1201_1_Zika_NS5A-x0351+A+1112+1
     RDKit          3D

 12 13  0  0  0  0  0  0  0  0999 V2000
  -28.8040  -29.7870  -15.6710 N   0  0  0  0  0  0  0  0  0  0  0  0
  -28.2740  -29.9650  -16.8810 C   0  0  0  0  0  0  0  0  0  0  0  0
  -26.8810  -30.1890  -17.0480 C   0  0  0  0  0  0  0  0  0  0  0  0
  -25.9270  -30.2580  -15.8840 C   0  0  0  0  0  0  0  0  0  0  0  0
  -29.1380  -29.9450  -17.9050 N   0  0  0  0  0  0  0  0  0  0  0  0
  -28.6580  -30.0910  -19.1790 C   0  0  0  0  0  0  0  0  0  0  0  0
  -27.2910  -30.2840  -19.4410 C   0  0  0  0  0  0  0  0  0  0  0  0
  -26.4240  -30.3340  -18.3360 C   0  0  0  0  0  0  0  0  0  0  0  0
  -29.5580  -29.9940  -20.2660 C   0  0  0  0  0  0  0  0  0  0  0  0
  -29.0980  -30.0740  -21.5480 C   0  0  0  0  0  0  0  0  0  0  0  0
  -27.7510  -30.2710  -21.8060 C   0  0  0  0  0  0  0  0  0  0  0  0
  -26.8580  -30.3810  -20.7830 C   0  0  0  0  0  0  0  0  0  0  0  0
  4  3  1  0
  3  8  2  0
  8  7  1  0
  7 12  2  0
 12 11  1  0
 11 10  2  0
 10  9  1  0
  9  6  2  0
  7  6  1  0
  6  5  1  0
  5  2  2  0
  3  2  1  0
  2  1  1  0
M  END
>  <id>  (24) 
173

>  <inchikey>  (24) 
NCZOVCDTUUZEEA-UHFFFAOYSA-N

>  <alias>  (24) 
z0881a

>  <name>  (24) 
z0881a

>  <smiles>  (24) 
Cc1cc2ccccc2nc1N

>  <path>  (24) 
/opt/xchem-fragalysis-2/maxwin/BulkDock/TARGETS/Flavi_NS5_RdRp/aligned_files/z0881a/z0881a.pdb

>  <distance_score>  (24) 
None

>  <energy_score>  (24) 
None

>  <compound>  (24) 
NCZOVCDTUUZEEA-UHFFFAOYSA-N

>  <compound_id>  (24) 
127

>  <target>  (24) 
Flavi_NS5_RdRp

$$$$
Zika_NS5A-x0903_A_1302_1_Zika_NS5A-x0351+A+1112+1
     RDKit          3D

 15 17  0  0  0  0  0  0  0  0999 V2000
  -27.2450  -31.9190  -20.2890 O   0  0  0  0  0  0  0  0  0  0  0  0
  -26.9860  -30.7270  -20.3570 C   0  0  0  0  0  0  0  0  0  0  0  0
  -25.9740  -30.1520  -21.0690 N   0  0  0  0  0  0  0  0  0  0  0  0
  -27.7350  -29.6010  -19.6210 C   0  0  2  0  0  0  0  0  0  0  0  0
  -26.9310  -28.4520  -20.0250 N   0  0  0  0  0  0  0  0  0  0  0  0
  -25.9320  -28.7740  -20.8790 C   0  0  0  0  0  0  0  0  0  0  0  0
  -25.1460  -27.9920  -21.4170 O   0  0  0  0  0  0  0  0  0  0  0  0
  -27.8800  -29.7770  -18.1210 C   0  0  0  0  0  0  0  0  0  0  0  0
  -29.2140  -29.9260  -17.7720 C   0  0  0  0  0  0  0  0  0  0  0  0
  -30.0720  -30.0710  -18.9960 C   0  0  0  0  0  0  0  0  0  0  0  0
  -29.2000  -29.4940  -20.1170 C   0  0  0  0  0  0  0  0  0  0  0  0
  -26.8930  -29.7790  -17.1430 C   0  0  0  0  0  0  0  0  0  0  0  0
  -27.2560  -29.9040  -15.8070 C   0  0  0  0  0  0  0  0  0  0  0  0
  -28.5850  -30.0110  -15.4530 C   0  0  0  0  0  0  0  0  0  0  0  0
  -29.5660  -30.0210  -16.4310 C   0  0  0  0  0  0  0  0  0  0  0  0
  7  6  2  0
  6  3  1  0
  3  2  1  0
  2  1  2  0
  4  2  1  0
  4 11  1  6
 11 10  1  0
 10  9  1  0
  9 15  2  0
 15 14  1  0
 14 13  2  0
 13 12  1  0
 12  8  2  0
  9  8  1  0
  8  4  1  0
  5  4  1  0
  6  5  1  0
M  END
>  <id>  (25) 
184

>  <inchikey>  (25) 
CDALGRHRPPTQPM-LLVKDONJSA-N

>  <alias>  (25) 
z0903a

>  <name>  (25) 
z0903a

>  <smiles>  (25) 
O=C1NC(=O)[C@]2(CCc3ccccc32)N1

>  <path>  (25) 
/opt/xchem-fragalysis-2/maxwin/BulkDock/TARGETS/Flavi_NS5_RdRp/aligned_files/z0903a/z0903a.pdb

>  <distance_score>  (25) 
None

>  <energy_score>  (25) 
None

>  <compound>  (25) 
CDALGRHRPPTQPM-UHFFFAOYSA-N

>  <compound_id>  (25) 
131

>  <target>  (25) 
Flavi_NS5_RdRp

$$$$
Zika_NS5A-x0922_A_1202_1_Zika_NS5A-x0351+A+1112+1
     RDKit          3D

 15 16  0  0  0  0  0  0  0  0999 V2000
  -28.9260  -30.0490  -15.6170 Br  0  0  0  0  0  0  0  0  0  0  0  0
  -27.9170  -29.9510  -17.2030 C   0  0  0  0  0  0  0  0  0  0  0  0
  -28.5840  -29.9260  -18.4100 C   0  0  0  0  0  0  0  0  0  0  0  0
  -26.5270  -29.8750  -17.1330 C   0  0  0  0  0  0  0  0  0  0  0  0
  -25.8740  -29.9980  -15.9500 O   0  0  0  0  0  0  0  0  0  0  0  0
  -25.8080  -29.7110  -18.3040 C   0  0  0  0  0  0  0  0  0  0  0  0
  -26.4830  -29.6450  -19.5030 C   0  0  0  0  0  0  0  0  0  0  0  0
  -27.8550  -29.7870  -19.5810 C   0  0  0  0  0  0  0  0  0  0  0  0
  -28.4870  -29.8590  -20.8880 C   0  0  0  0  0  0  0  0  0  0  0  0
  -29.6490  -30.0850  -21.0890 O   0  0  0  0  0  0  0  0  0  0  0  0
  -27.6870  -29.6720  -21.9730 O   0  0  0  0  0  0  0  0  0  0  0  0
  -25.7620  -29.3440  -20.6310 O   0  0  0  0  0  0  0  0  0  0  0  0
  -26.2660  -29.9210  -21.8550 C   0  0  0  0  0  0  0  0  0  0  0  0
  -25.9600  -31.3960  -21.8260 C   0  0  0  0  0  0  0  0  0  0  0  0
  -25.5980  -29.2050  -23.0050 C   0  0  0  0  0  0  0  0  0  0  0  0
 15 13  1  0
 14 13  1  0
 13 11  1  0
 11  9  1  0
 10  9  2  0
  9  8  1  0
  8  3  1  0
  3  2  2  0
  2  1  1  0
  4  2  1  0
  5  4  1  0
  6  4  2  0
  7  6  1  0
  8  7  2  0
 12  7  1  0
 13 12  1  0
M  END
>  <id>  (26) 
191

>  <inchikey>  (26) 
FOZVJTHORLMHQD-UHFFFAOYSA-N

>  <alias>  (26) 
z0922a

>  <name>  (26) 
z0922a

>  <smiles>  (26) 
CC1(C)OC(=O)c2cc(Br)c(O)cc2O1

>  <path>  (26) 
/opt/xchem-fragalysis-2/maxwin/BulkDock/TARGETS/Flavi_NS5_RdRp/aligned_files/z0922a/z0922a.pdb

>  <distance_score>  (26) 
None

>  <energy_score>  (26) 
None

>  <compound>  (26) 
FOZVJTHORLMHQD-UHFFFAOYSA-N

>  <compound_id>  (26) 
134

>  <target>  (26) 
Flavi_NS5_RdRp

$$$$
Zika_NS5A-x0936_A_1101_1_Zika_NS5A-x0351+A+1112+1
     RDKit          3D

 12 13  0  0  0  0  0  0  0  0999 V2000
  -31.0190  -29.9040  -21.3950 C   0  0  0  0  0  0  0  0  0  0  0  0
  -29.9580  -29.9490  -20.3520 C   0  0  0  0  0  0  0  0  0  0  0  0
  -28.6590  -29.9330  -20.6850 N   0  0  0  0  0  0  0  0  0  0  0  0
  -27.8580  -29.9570  -19.6090 N   0  0  0  0  0  0  0  0  0  0  0  0
  -28.6830  -29.9820  -18.5540 C   0  0  0  0  0  0  0  0  0  0  0  0
  -30.0220  -29.9890  -18.9800 C   0  0  0  0  0  0  0  0  0  0  0  0
  -28.1440  -29.9490  -17.1880 C   0  0  0  0  0  0  0  0  0  0  0  0
  -28.9900  -29.8360  -16.0960 C   0  0  0  0  0  0  0  0  0  0  0  0
  -28.4730  -29.7820  -14.8130 C   0  0  0  0  0  0  0  0  0  0  0  0
  -27.1140  -29.8360  -14.6100 C   0  0  0  0  0  0  0  0  0  0  0  0
  -26.2690  -29.9480  -15.6850 C   0  0  0  0  0  0  0  0  0  0  0  0
  -26.7760  -30.0080  -16.9700 C   0  0  0  0  0  0  0  0  0  0  0  0
  2  1  1  0
  2  6  2  0
  6  5  1  0
  5  4  2  0
  4  3  1  0
  3  2  1  0
  7  5  1  0
  7 12  2  0
 12 11  1  0
 11 10  2  0
 10  9  1  0
  9  8  2  0
  8  7  1  0
M  END
>  <id>  (27) 
196

>  <inchikey>  (27) 
QHRSESMSOJZMCO-UHFFFAOYSA-N

>  <alias>  (27) 
z0936a

>  <name>  (27) 
z0936a

>  <smiles>  (27) 
Cc1cc(-c2ccccc2)n[nH]1

>  <path>  (27) 
/opt/xchem-fragalysis-2/maxwin/BulkDock/TARGETS/Flavi_NS5_RdRp/aligned_files/z0936a/z0936a.pdb

>  <distance_score>  (27) 
None

>  <energy_score>  (27) 
None

>  <compound>  (27) 
QHRSESMSOJZMCO-UHFFFAOYSA-N

>  <compound_id>  (27) 
136

>  <target>  (27) 
Flavi_NS5_RdRp

$$$$
None
     RDKit          3D

 15 16  0  0  0  0  0  0  0  0999 V2000
  -25.1300  -27.1920  -21.9810 O   0  0  0  0  0  0  0  0  0  0  0  0
  -25.0680  -27.3340  -20.5600 S   0  0  0  0  0  0  0  0  0  0  0  0
  -25.6810  -26.3350  -19.7380 O   0  0  0  0  0  0  0  0  0  0  0  0
  -23.3870  -27.4480  -20.0860 C   0  0  0  0  0  0  0  0  0  0  0  0
  -25.7790  -28.7650  -20.2170 N   0  0  0  0  0  0  0  0  0  0  0  0
  -27.2410  -28.9130  -20.0120 C   0  0  2  0  0  0  0  0  0  0  0  0
  -27.6070  -29.4620  -18.6480 C   0  0  0  0  0  0  0  0  0  0  0  0
  -26.7130  -29.4760  -17.5790 C   0  0  0  0  0  0  0  0  0  0  0  0
  -27.1430  -29.8130  -16.3030 C   0  0  0  0  0  0  0  0  0  0  0  0
  -28.4660  -30.1340  -16.0810 C   0  0  0  0  0  0  0  0  0  0  0  0
  -29.3650  -30.1580  -17.1360 C   0  0  0  0  0  0  0  0  0  0  0  0
  -28.9170  -29.8490  -18.4090 C   0  0  0  0  0  0  0  0  0  0  0  0
  -29.7930  -30.0150  -19.4470 O   0  0  0  0  0  0  0  0  0  0  0  0
  -29.1330  -30.4950  -20.6480 C   0  0  0  0  0  0  0  0  0  0  0  0
  -27.9280  -29.7000  -21.1250 C   0  0  0  0  0  0  0  0  0  0  0  0
  4  2  1  0
  3  2  2  0
  2  1  2  0
  5  2  1  0
  6  5  1  6
  6 15  1  0
 15 14  1  0
 14 13  1  0
 13 12  1  0
 12 11  2  0
 11 10  1  0
 10  9  2  0
  9  8  1  0
  8  7  2  0
  7  6  1  0
 12  7  1  0
M  END
>  <id>  (28) 
200

>  <inchikey>  (28) 
GLQMCOZZWSNYPN-VIFPVBQESA-N

>  <alias>  (28) 
z0991a

>  <name>  (28) 
z0991a

>  <smiles>  (28) 
CS(=O)(=O)N[C@H]1CCOc2ccccc21

>  <path>  (28) 
/opt/xchem-fragalysis-2/maxwin/BulkDock/TARGETS/Flavi_NS5_RdRp/aligned_files/z0991a/z0991a.pdb

>  <distance_score>  (28) 
None

>  <energy_score>  (28) 
None

>  <compound>  (28) 
GLQMCOZZWSNYPN-UHFFFAOYSA-N

>  <compound_id>  (28) 
139

>  <target>  (28) 
Flavi_NS5_RdRp

$$$$
Zika_NS5A-x1018_A_1112_1_Zika_NS5A-x0351+A+1112+1
     RDKit          3D

 18 19  0  0  0  0  0  0  0  0999 V2000
  -24.6370  -32.9720  -24.2020 O   0  0  0  0  0  0  0  0  0  0  0  0
  -23.4380  -33.0890  -24.0000 C   0  0  0  0  0  0  0  0  0  0  0  0
  -22.4420  -33.7780  -24.8910 C   0  0  0  0  0  0  0  0  0  0  0  0
  -21.0850  -33.4100  -24.3100 C   0  0  0  0  0  0  0  0  0  0  0  0
  -21.3630  -32.9570  -22.8880 C   0  0  0  0  0  0  0  0  0  0  0  0
  -22.7850  -32.6050  -22.9240 N   0  0  0  0  0  0  0  0  0  0  0  0
  -23.4200  -31.7770  -21.8880 C   0  0  0  0  0  0  0  0  0  0  0  0
  -24.3470  -32.5530  -20.9610 C   0  0  0  0  0  0  0  0  0  0  0  0
  -25.4880  -31.7690  -20.4960 N   0  0  0  0  0  0  0  0  0  0  0  0
  -26.3340  -31.1610  -21.3620 C   0  0  0  0  0  0  0  0  0  0  0  0
  -26.1830  -31.2570  -22.5750 O   0  0  0  0  0  0  0  0  0  0  0  0
  -27.3860  -30.4590  -20.8200 N   0  0  0  0  0  0  0  0  0  0  0  0
  -27.8020  -30.2930  -19.4750 C   0  0  0  0  0  0  0  0  0  0  0  0
  -26.9510  -30.0480  -18.4030 C   0  0  0  0  0  0  0  0  0  0  0  0
  -27.4770  -29.8290  -17.1390 C   0  0  0  0  0  0  0  0  0  0  0  0
  -28.8380  -29.8380  -16.9390 C   0  0  0  0  0  0  0  0  0  0  0  0
  -29.6850  -30.0770  -17.9990 C   0  0  0  0  0  0  0  0  0  0  0  0
  -29.1740  -30.3100  -19.2640 C   0  0  0  0  0  0  0  0  0  0  0  0
 11 10  2  0
 10  9  1  0
  9  8  1  0
  8  7  1  0
  7  6  1  0
  6  5  1  0
  5  4  1  0
  4  3  1  0
  3  2  1  0
  6  2  1  0
  2  1  2  0
 12 10  1  0
 13 12  1  0
 13 18  2  0
 18 17  1  0
 17 16  2  0
 16 15  1  0
 15 14  2  0
 14 13  1  0
M  END
>  <id>  (29) 
206

>  <inchikey>  (29) 
OYRHWZOYGOUXNC-UHFFFAOYSA-N

>  <alias>  (29) 
z1018a

>  <name>  (29) 
z1018a

>  <smiles>  (29) 
O=C(NCCN1CCCC1=O)Nc1ccccc1

>  <path>  (29) 
/opt/xchem-fragalysis-2/maxwin/BulkDock/TARGETS/Flavi_NS5_RdRp/aligned_files/z1018a/z1018a.pdb

>  <distance_score>  (29) 
None

>  <energy_score>  (29) 
None

>  <compound>  (29) 
OYRHWZOYGOUXNC-UHFFFAOYSA-N

>  <compound_id>  (29) 
144

>  <target>  (29) 
Flavi_NS5_RdRp

$$$$
Zika_NS5A-x1040_A_1204_1_Zika_NS5A-x0351+A+1112+1
     RDKit          3D

 12 13  0  0  0  0  0  0  0  0999 V2000
  -24.4130  -30.4810  -16.2440 C   0  0  0  0  0  0  0  0  0  0  0  0
  -25.0350  -30.4490  -17.5480 N   0  0  0  0  0  0  0  0  0  0  0  0
  -26.3820  -30.3770  -17.7220 C   0  0  0  0  0  0  0  0  0  0  0  0
  -26.7710  -30.2300  -18.9810 N   0  0  0  0  0  0  0  0  0  0  0  0
  -28.1160  -30.1920  -19.2360 C   0  0  0  0  0  0  0  0  0  0  0  0
  -29.0760  -30.3170  -18.2040 C   0  0  0  0  0  0  0  0  0  0  0  0
  -28.6080  -30.4480  -16.8770 C   0  0  0  0  0  0  0  0  0  0  0  0
  -27.2710  -30.4820  -16.6230 C   0  0  0  0  0  0  0  0  0  0  0  0
  -28.5520  -30.0240  -20.5700 C   0  0  0  0  0  0  0  0  0  0  0  0
  -29.8820  -30.0300  -20.8630 C   0  0  0  0  0  0  0  0  0  0  0  0
  -30.8250  -30.1900  -19.8590 C   0  0  0  0  0  0  0  0  0  0  0  0
  -30.4410  -30.3200  -18.5540 C   0  0  0  0  0  0  0  0  0  0  0  0
  2  1  1  0
  3  2  1  0
  3  8  2  0
  8  7  1  0
  7  6  2  0
  6 12  1  0
 12 11  2  0
 11 10  1  0
 10  9  2  0
  9  5  1  0
  6  5  1  0
  5  4  2  0
  4  3  1  0
M  END
>  <id>  (30) 
208

>  <inchikey>  (30) 
POVSMFKXVSNGSU-UHFFFAOYSA-N

>  <alias>  (30) 
z1040a

>  <name>  (30) 
z1040a

>  <smiles>  (30) 
CNc1ccc2ccccc2n1

>  <path>  (30) 
/opt/xchem-fragalysis-2/maxwin/BulkDock/TARGETS/Flavi_NS5_RdRp/aligned_files/z1040a/z1040a.pdb

>  <distance_score>  (30) 
None

>  <energy_score>  (30) 
None

>  <compound>  (30) 
POVSMFKXVSNGSU-UHFFFAOYSA-N

>  <compound_id>  (30) 
146

>  <target>  (30) 
Flavi_NS5_RdRp

$$$$
3vws_A_1004_1_3vws+A+1003+1
     RDKit          3D

 24 26  0  0  0  0  0  0  0  0999 V2000
  -23.4650  -28.6480  -15.5860 Cl  0  0  0  0  0  0  0  0  0  0  0  0
  -22.3660  -28.8730  -16.9970 C   0  0  0  0  0  0  0  0  0  0  0  0
  -22.9060  -29.5530  -18.1020 C   0  0  0  0  0  0  0  0  0  0  0  0
  -22.0950  -29.7410  -19.2230 C   0  0  0  0  0  0  0  0  0  0  0  0
  -21.0090  -28.3900  -17.0180 C   0  0  0  0  0  0  0  0  0  0  0  0
  -20.2010  -28.6030  -18.1730 C   0  0  0  0  0  0  0  0  0  0  0  0
  -20.7490  -29.2990  -19.3230 C   0  0  0  0  0  0  0  0  0  0  0  0
  -19.9610  -29.6120  -20.7660 S   0  0  0  0  0  0  0  0  0  0  0  0
  -20.2550  -28.6020  -21.8330 O   0  0  0  0  0  0  0  0  0  0  0  0
  -18.6660  -29.0470  -20.4310 O   0  0  0  0  0  0  0  0  0  0  0  0
  -19.1620  -31.0130  -20.9470 N   0  0  0  0  0  0  0  0  0  0  0  0
  -19.7970  -32.2470  -20.9910 C   0  0  0  0  0  0  0  0  0  0  0  0
  -19.1610  -33.3930  -20.4120 C   0  0  0  0  0  0  0  0  0  0  0  0
  -19.8070  -34.6650  -20.4470 C   0  0  0  0  0  0  0  0  0  0  0  0
  -21.0890  -32.3890  -21.6070 C   0  0  0  0  0  0  0  0  0  0  0  0
  -21.7270  -33.6590  -21.6310 C   0  0  0  0  0  0  0  0  0  0  0  0
  -22.9550  -34.1670  -22.1330 C   0  0  0  0  0  0  0  0  0  0  0  0
  -23.9950  -33.2800  -22.8450 C   0  0  0  0  0  0  0  0  0  0  0  0
  -25.0570  -33.8360  -23.2630 O   0  0  0  0  0  0  0  0  0  0  0  0
  -23.8250  -32.0220  -23.0110 O   0  0  0  0  0  0  0  0  0  0  0  0
  -21.0960  -34.7900  -21.0600 C   0  0  0  0  0  0  0  0  0  0  0  0
  -21.8390  -35.9000  -21.1800 O   0  0  0  0  0  0  0  0  0  0  0  0
  -23.0070  -35.5580  -21.8460 C   0  0  0  0  0  0  0  0  0  0  0  0
  -23.9950  -36.6710  -22.0870 C   0  0  0  0  0  0  0  0  0  0  0  0
  9  8  2  0
 10  8  2  0
  8  7  1  0
  8 11  1  0
  7  4  2  0
  7  6  1  0
  4  3  1  0
  6  5  2  0
 11 12  1  0
  3  2  2  0
  5  2  1  0
  2  1  1  0
 12 13  2  0
 12 15  1  0
 13 14  1  0
 15 16  2  0
 14 21  2  0
 16 21  1  0
 16 17  1  0
 21 22  1  0
 19 18  2  0
 17 18  1  0
 17 23  2  0
 22 23  1  0
 18 20  1  0
 23 24  1  0
M  END
>  <id>  (31) 
217

>  <inchikey>  (31) 
UZVVWRBCUSWUON-UHFFFAOYSA-N

>  <alias>  (31) 
3vws-b

>  <name>  (31) 
3vws-b

>  <smiles>  (31) 
Cc1oc2ccc(NS(=O)(=O)c3ccc(Cl)cc3)cc2c1C(=O)O

>  <path>  (31) 
/opt/xchem-fragalysis-2/maxwin/BulkDock/TARGETS/Flavi_NS5_RdRp/aligned_files/3vws-b/3vws-b.pdb

>  <distance_score>  (31) 
None

>  <energy_score>  (31) 
None

>  <compound>  (31) 
UZVVWRBCUSWUON-UHFFFAOYSA-N

>  <compound_id>  (31) 
154

>  <target>  (31) 
Flavi_NS5_RdRp

$$$$
3vws_A_1003_1_3vws+A+1003+1
     RDKit          3D

 24 26  0  0  0  0  0  0  0  0999 V2000
  -26.7260  -28.5030  -20.2290 Cl  0  0  0  0  0  0  0  0  0  0  0  0
  -26.3420  -30.1380  -19.6870 C   0  0  0  0  0  0  0  0  0  0  0  0
  -27.1730  -30.5900  -18.6680 C   0  0  0  0  0  0  0  0  0  0  0  0
  -26.9720  -31.8610  -18.1400 C   0  0  0  0  0  0  0  0  0  0  0  0
  -25.2990  -30.9420  -20.2270 C   0  0  0  0  0  0  0  0  0  0  0  0
  -25.1090  -32.2420  -19.6830 C   0  0  0  0  0  0  0  0  0  0  0  0
  -25.9680  -32.7080  -18.6110 C   0  0  0  0  0  0  0  0  0  0  0  0
  -25.8660  -34.1300  -17.8450 S   0  0  0  0  0  0  0  0  0  0  0  0
  -26.9300  -35.1090  -17.9600 O   0  0  0  0  0  0  0  0  0  0  0  0
  -25.1250  -34.9060  -18.8310 O   0  0  0  0  0  0  0  0  0  0  0  0
  -24.6750  -34.2200  -16.7840 N   0  0  0  0  0  0  0  0  0  0  0  0
  -23.4960  -33.5330  -16.6760 C   0  0  0  0  0  0  0  0  0  0  0  0
  -22.4850  -33.5910  -17.6800 C   0  0  0  0  0  0  0  0  0  0  0  0
  -21.2550  -32.9000  -17.4970 C   0  0  0  0  0  0  0  0  0  0  0  0
  -23.2770  -32.7760  -15.4720 C   0  0  0  0  0  0  0  0  0  0  0  0
  -22.0400  -32.0890  -15.2880 C   0  0  0  0  0  0  0  0  0  0  0  0
  -21.4420  -31.2650  -14.2800 C   0  0  0  0  0  0  0  0  0  0  0  0
  -22.1160  -30.8650  -12.9730 C   0  0  0  0  0  0  0  0  0  0  0  0
  -23.2530  -31.2820  -12.6450 O   0  0  0  0  0  0  0  0  0  0  0  0
  -21.5200  -30.0570  -12.2170 O   0  0  0  0  0  0  0  0  0  0  0  0
  -21.0530  -32.1600  -16.2940 C   0  0  0  0  0  0  0  0  0  0  0  0
  -19.9760  -31.4690  -15.9630 O   0  0  0  0  0  0  0  0  0  0  0  0
  -20.1540  -30.9040  -14.7170 C   0  0  0  0  0  0  0  0  0  0  0  0
  -19.0000  -30.0710  -14.1720 C   0  0  0  0  0  0  0  0  0  0  0  0
  9  8  2  0
 10  8  2  0
  8  7  1  0
  8 11  1  0
  7  4  2  0
  7  6  1  0
  4  3  1  0
  6  5  2  0
 11 12  1  0
  3  2  2  0
  5  2  1  0
  2  1  1  0
 12 13  2  0
 12 15  1  0
 13 14  1  0
 15 16  2  0
 14 21  2  0
 16 21  1  0
 16 17  1  0
 21 22  1  0
 19 18  2  0
 17 18  1  0
 17 23  2  0
 22 23  1  0
 18 20  1  0
 23 24  1  0
M  END
>  <id>  (32) 
218

>  <inchikey>  (32) 
UZVVWRBCUSWUON-UHFFFAOYSA-N

>  <alias>  (32) 
3vws-a

>  <name>  (32) 
3vws-a

>  <smiles>  (32) 
Cc1oc2ccc(NS(=O)(=O)c3ccc(Cl)cc3)cc2c1C(=O)O

>  <path>  (32) 
/opt/xchem-fragalysis-2/maxwin/BulkDock/TARGETS/Flavi_NS5_RdRp/aligned_files/3vws-a/3vws-a.pdb

>  <distance_score>  (32) 
None

>  <energy_score>  (32) 
None

>  <compound>  (32) 
UZVVWRBCUSWUON-UHFFFAOYSA-N

>  <compound_id>  (32) 
154

>  <target>  (32) 
Flavi_NS5_RdRp

$$$$
