Zika_NS5A-x0283_A_1101_1_Zika_NS5A-x0283+A+1101+1
     RDKit          3D

 15 16  0  0  0  0  0  0  0  0999 V2000
  -31.4280  -42.5210  -15.5640 O   0  0  0  0  0  0  0  0  0  0  0  0
  -32.6340  -42.4130  -15.4010 C   0  0  0  0  0  0  0  0  0  0  0  0
  -33.2540  -42.6270  -14.0200 C   0  0  0  0  0  0  0  0  0  0  0  0
  -32.3860  -42.1190  -12.9700 N   0  0  0  0  0  0  0  0  0  0  0  0
  -32.1730  -40.7870  -12.8240 N   0  0  0  0  0  0  0  0  0  0  0  0
  -31.3040  -40.7060  -11.8240 C   0  0  0  0  0  0  0  0  0  0  0  0
  -30.9670  -41.9580  -11.3250 C   0  0  0  0  0  0  0  0  0  0  0  0
  -31.6780  -42.8400  -12.0820 C   0  0  0  0  0  0  0  0  0  0  0  0
  -33.4670  -42.0920  -16.4130 N   0  0  0  0  0  0  0  0  0  0  0  0
  -33.3020  -42.6680  -17.7490 C   0  0  0  0  0  0  0  0  0  0  0  0
  -34.5420  -41.0970  -16.3260 C   0  0  0  0  0  0  0  0  0  0  0  0
  -35.7940  -41.6500  -16.9420 C   0  0  0  0  0  0  0  0  0  0  0  0
  -35.5500  -42.0240  -18.3070 O   0  0  0  0  0  0  0  0  0  0  0  0
  -34.6020  -43.0800  -18.4100 C   0  0  1  0  0  0  0  0  0  0  0  0
  -34.4350  -43.2930  -19.8950 C   0  0  0  0  0  0  0  0  0  0  0  0
 14 15  1  6
 14 10  1  0
 10  9  1  0
 11  9  1  0
 12 11  1  0
 13 12  1  0
 14 13  1  0
  9  2  1  0
  2  1  2  0
  3  2  1  0
  4  3  1  0
  4  8  1  0
  8  7  2  0
  7  6  1  0
  6  5  2  0
  5  4  1  0
M  END
$$$$

