Zika_NS5A-x0519_A_1101_1_Zika_NS5A-x0351+A+1112+1
     RDKit          3D

 18 19  0  0  0  0  0  0  0  0999 V2000
  -27.0300  -32.7900  -23.7430 O   0  0  0  0  0  0  0  0  0  0  0  0
  -26.4970  -31.6890  -23.7610 C   0  0  0  0  0  0  0  0  0  0  0  0
  -26.7060  -30.6990  -24.6870 N   0  0  0  0  0  0  0  0  0  0  0  0
  -25.9630  -29.5610  -24.4020 C   0  0  0  0  0  0  0  0  0  0  0  0
  -25.9710  -28.5220  -25.0550 O   0  0  0  0  0  0  0  0  0  0  0  0
  -25.2560  -29.8060  -23.2780 N   0  0  0  0  0  0  0  0  0  0  0  0
  -25.4950  -31.1470  -22.7390 C   0  0  2  0  0  0  0  0  0  0  0  0
  -24.2050  -31.9720  -22.7210 C   0  0  0  0  0  0  0  0  0  0  0  0
  -26.1140  -31.1110  -21.3450 C   0  0  0  0  0  0  0  0  0  0  0  0
  -27.2380  -30.0820  -21.1900 C   0  0  0  0  0  0  0  0  0  0  0  0
  -27.7710  -30.0780  -19.7820 C   0  0  0  0  0  0  0  0  0  0  0  0
  -29.0850  -30.4210  -19.5110 C   0  0  0  0  0  0  0  0  0  0  0  0
  -29.5550  -30.4840  -18.2110 C   0  0  0  0  0  0  0  0  0  0  0  0
  -26.9350  -29.7890  -18.7170 C   0  0  0  0  0  0  0  0  0  0  0  0
  -27.3860  -29.8490  -17.4130 C   0  0  0  0  0  0  0  0  0  0  0  0
  -28.7000  -30.1960  -17.1580 C   0  0  0  0  0  0  0  0  0  0  0  0
  -29.1520  -30.2400  -15.8650 O   0  0  0  0  0  0  0  0  0  0  0  0
  -28.2380  -30.6540  -14.8460 C   0  0  0  0  0  0  0  0  0  0  0  0
 18 17  1  0
 17 16  1  0
 16 13  1  0
 13 12  2  0
 12 11  1  0
 11 10  1  0
 10  9  1  0
  9  7  1  0
  7  8  1  1
  7  6  1  0
  6  4  1  0
  5  4  2  0
  4  3  1  0
  3  2  1  0
  7  2  1  0
  2  1  2  0
 14 11  2  0
 15 14  1  0
 16 15  2  0
M  END
$$$$

