DNV2_NS5A-x0378_A_1707_1_DNV2_NS5A-x0172+A+1701+1
     RDKit          3D

 13 13  0  0  0  0  0  0  0  0999 V2000
  -23.9320  -26.7690  -22.2220 N   0  0  0  0  0  0  0  0  0  0  0  0
  -24.4060  -27.2700  -21.3140 C   0  0  0  0  0  0  0  0  0  0  0  0
  -25.0600  -27.8280  -20.1340 C   0  0  0  0  0  0  0  0  0  0  0  0
  -25.6190  -29.1920  -20.3820 C   0  0  0  0  0  0  0  0  0  0  0  0
  -25.6270  -29.8180  -21.5440 N   0  0  0  0  0  0  0  0  0  0  0  0
  -26.2540  -31.0210  -21.3050 C   0  0  0  0  0  0  0  0  0  0  0  0
  -26.6200  -31.1170  -20.0050 C   0  0  0  0  0  0  0  0  0  0  0  0
  -26.2110  -29.9480  -19.4100 N   0  0  0  0  0  0  0  0  0  0  0  0
  -26.3680  -29.6170  -17.9920 C   0  0  0  0  0  0  0  0  0  0  0  0
  -27.6370  -28.8610  -17.7020 C   0  0  0  0  0  0  0  0  0  0  0  0
  -27.5920  -28.2660  -16.5210 F   0  0  0  0  0  0  0  0  0  0  0  0
  -28.7060  -29.6510  -17.6860 F   0  0  0  0  0  0  0  0  0  0  0  0
  -27.8840  -27.8970  -18.5810 F   0  0  0  0  0  0  0  0  0  0  0  0
 11 10  1  0
 12 10  1  0
 13 10  1  0
 10  9  1  0
  9  8  1  0
  8  7  1  0
  7  6  2  0
  6  5  1  0
  5  4  2  0
  8  4  1  0
  4  3  1  0
  3  2  1  0
  2  1  3  0
M  END
$$$$

