DNV2_NS5A-x1094_A_1701_1_DNV2_NS5A-x1094+A+1701+1
     RDKit          3D

  7  7  0  0  0  0  0  0  0  0999 V2000
   -5.4080  -50.0060  -19.2190 Br  0  0  0  0  0  0  0  0  0  0  0  0
   -5.2100  -48.1980  -19.8980 C   0  0  0  0  0  0  0  0  0  0  0  0
   -5.2110  -47.1870  -18.9740 N   0  0  0  0  0  0  0  0  0  0  0  0
   -5.0810  -45.9610  -19.5000 C   0  0  0  0  0  0  0  0  0  0  0  0
   -4.9610  -45.7160  -20.8520 C   0  0  0  0  0  0  0  0  0  0  0  0
   -4.9630  -46.8190  -21.6850 C   0  0  0  0  0  0  0  0  0  0  0  0
   -5.0880  -48.0820  -21.2500 N   0  0  0  0  0  0  0  0  0  0  0  0
  2  1  1  0
  2  7  2  0
  7  6  1  0
  6  5  2  0
  5  4  1  0
  4  3  2  0
  3  2  1  0
M  END
$$$$

