DNV2_NS5A-x1037_A_1901_1_DNV2_NS5A-x1037+A+1901+1
     RDKit          3D

  7  7  0  0  0  0  0  0  0  0999 V2000
    0.2110  -45.3040  -37.2890 O   0  0  0  0  0  0  0  0  0  0  0  0
    1.0190  -46.2870  -36.6180 S   0  0  0  0  0  0  0  0  0  0  0  0
    0.4270  -47.4750  -36.0630 O   0  0  0  0  0  0  0  0  0  0  0  0
    2.2120  -45.5100  -35.5390 C   0  0  0  0  0  0  0  0  0  0  0  0
    2.5450  -46.6380  -37.4790 C   0  0  0  0  0  0  0  0  0  0  0  0
    3.2590  -45.5610  -36.6550 C   0  0  0  0  0  0  0  0  0  0  0  0
    3.2140  -44.3740  -37.4430 O   0  0  0  0  0  0  0  0  0  0  0  0
  7  6  1  0
  6  4  1  0
  4  2  1  0
  3  2  2  0
  2  1  2  0
  5  2  1  0
  6  5  1  0
M  END
$$$$

