DNV2_NS5A-x1037_A_2101_1_DNV2_NS5A-x1037+A+2101+1
     RDKit          3D

  7  7  0  0  0  0  0  0  0  0999 V2000
   12.9020  -28.9740  -27.7650 O   0  0  0  0  0  0  0  0  0  0  0  0
   12.7320  -27.6140  -28.2030 S   0  0  0  0  0  0  0  0  0  0  0  0
   11.4850  -26.9390  -27.9670 O   0  0  0  0  0  0  0  0  0  0  0  0
   13.3590  -27.3250  -29.8520 C   0  0  0  0  0  0  0  0  0  0  0  0
   14.1550  -26.5940  -27.8410 C   0  0  0  0  0  0  0  0  0  0  0  0
   14.5150  -26.4690  -29.3260 C   0  0  0  0  0  0  0  0  0  0  0  0
   15.7810  -27.0990  -29.5320 O   0  0  0  0  0  0  0  0  0  0  0  0
  7  6  1  0
  6  4  1  0
  4  2  1  0
  3  2  2  0
  2  1  2  0
  5  2  1  0
  6  5  1  0
M  END
$$$$

