Zika_NS5A-x0892_A_1302_1_Zika_NS5A-x0892+A+1302+1
     RDKit          3D

 15 16  0  0  0  0  0  0  0  0999 V2000
  -26.9240    0.8840  -21.8060 C   0  0  0  0  0  0  0  0  0  0  0  0
  -27.5080    0.8440  -20.4220 C   0  0  0  0  0  0  0  0  0  0  0  0
  -26.7040    0.0050  -19.4600 C   0  0  0  0  0  0  0  0  0  0  0  0
  -27.2600   -1.1260  -18.8650 C   0  0  0  0  0  0  0  0  0  0  0  0
  -26.5460   -1.8650  -17.9410 C   0  0  0  0  0  0  0  0  0  0  0  0
  -25.2360   -1.5190  -17.6360 C   0  0  0  0  0  0  0  0  0  0  0  0
  -24.6810   -0.3720  -18.1970 C   0  0  0  0  0  0  0  0  0  0  0  0
  -25.4100    0.3680  -19.1070 C   0  0  0  0  0  0  0  0  0  0  0  0
  -24.4510   -2.4330  -16.9480 N   0  0  0  0  0  0  0  0  0  0  0  0
  -23.3150   -3.1030  -16.9950 C   0  0  0  0  0  0  0  0  0  0  0  0
  -22.6200   -2.6780  -18.5580 S   0  0  0  0  0  0  0  0  0  0  0  0
  -21.1580   -3.7520  -18.5400 C   0  0  0  0  0  0  0  0  0  0  0  0
  -20.6500   -4.0000  -17.1410 C   0  0  0  0  0  0  0  0  0  0  0  0
  -21.6750   -4.6160  -16.2540 C   0  0  0  0  0  0  0  0  0  0  0  0
  -22.8950   -3.8530  -16.0850 N   0  0  0  0  0  0  0  0  0  0  0  0
  2  1  1  0
  3  2  1  0
  3  8  2  0
  8  7  1  0
  7  6  2  0
  9  6  1  0
 10  9  1  0
 10 15  2  0
 15 14  1  0
 14 13  1  0
 13 12  1  0
 12 11  1  0
 11 10  1  0
  6  5  1  0
  5  4  2  0
  4  3  1  0
M  END
$$$$

