Zika_NS5A-x0111_A_1201_1_Zika_NS5A-x0351+A+1112+1
     RDKit          3D

 12 13  0  0  0  0  0  0  0  0999 V2000
  -25.3030  -31.2440  -20.6040 C   0  0  0  0  0  0  0  0  0  0  0  0
  -26.2370  -30.1530  -20.7810 N   0  0  0  0  0  0  0  0  0  0  0  0
  -27.4370  -30.1020  -20.1780 C   0  0  0  0  0  0  0  0  0  0  0  0
  -27.5310  -30.0830  -18.7350 C   0  0  0  0  0  0  0  0  0  0  0  0
  -28.8350  -30.0110  -18.1720 C   0  0  0  0  0  0  0  0  0  0  0  0
  -29.9450  -29.9760  -19.0390 C   0  0  0  0  0  0  0  0  0  0  0  0
  -29.7370  -29.9860  -20.3820 C   0  0  0  0  0  0  0  0  0  0  0  0
  -28.5250  -30.0410  -20.9520 N   0  0  0  0  0  0  0  0  0  0  0  0
  -26.4230  -30.1010  -17.8430 C   0  0  0  0  0  0  0  0  0  0  0  0
  -26.6070  -30.0480  -16.4900 C   0  0  0  0  0  0  0  0  0  0  0  0
  -27.8780  -29.9700  -15.9560 C   0  0  0  0  0  0  0  0  0  0  0  0
  -28.9740  -29.9500  -16.7680 C   0  0  0  0  0  0  0  0  0  0  0  0
  2  1  1  0
  3  2  1  0
  3  8  2  0
  8  7  1  0
  7  6  2  0
  6  5  1  0
  5 12  2  0
 12 11  1  0
 11 10  2  0
 10  9  1  0
  9  4  2  0
  4  3  1  0
  5  4  1  0
M  END
$$$$

