Zika_NS5A-x0111_A_1112_1_Zika_NS5A-x0111+A+1112+1
     RDKit          3D

 12 13  0  0  0  0  0  0  0  0999 V2000
   -6.3880  -39.8340  -42.3630 C   0  0  0  0  0  0  0  0  0  0  0  0
   -6.1030  -40.1000  -43.7550 N   0  0  0  0  0  0  0  0  0  0  0  0
   -5.2510  -39.3520  -44.4770 C   0  0  0  0  0  0  0  0  0  0  0  0
   -4.5790  -39.9140  -45.6300 C   0  0  0  0  0  0  0  0  0  0  0  0
   -3.6360  -39.0820  -46.3020 C   0  0  0  0  0  0  0  0  0  0  0  0
   -3.4160  -37.7760  -45.8140 C   0  0  0  0  0  0  0  0  0  0  0  0
   -4.1200  -37.3450  -44.7320 C   0  0  0  0  0  0  0  0  0  0  0  0
   -5.0190  -38.0960  -44.0700 N   0  0  0  0  0  0  0  0  0  0  0  0
   -4.8060  -41.2160  -46.1530 C   0  0  0  0  0  0  0  0  0  0  0  0
   -4.1490  -41.6550  -47.2670 C   0  0  0  0  0  0  0  0  0  0  0  0
   -3.2370  -40.8380  -47.9170 C   0  0  0  0  0  0  0  0  0  0  0  0
   -2.9780  -39.5790  -47.4540 C   0  0  0  0  0  0  0  0  0  0  0  0
  2  1  1  0
  3  2  1  0
  3  8  2  0
  8  7  1  0
  7  6  2  0
  6  5  1  0
  5 12  2  0
 12 11  1  0
 11 10  2  0
 10  9  1  0
  9  4  2  0
  4  3  1  0
  5  4  1  0
M  END
$$$$

