5hmy_A_1003_1_5i3p+A+1003+1
     RDKit          3D

 23 24  0  0  0  0  0  0  0  0999 V2000
  -13.6900  -42.0740  -20.9510 C   0  0  0  0  0  0  0  0  0  0  0  0
  -14.6530  -43.0350  -20.2960 C   0  0  0  0  0  0  0  0  0  0  0  0
  -14.5710  -43.2350  -18.9200 C   0  0  0  0  0  0  0  0  0  0  0  0
  -15.1740  -40.2190  -21.2790 O   0  0  0  0  0  0  0  0  0  0  0  0
  -16.2150  -43.7690  -14.7030 O   0  0  0  0  0  0  0  0  0  0  0  0
  -17.0570  -42.7860  -16.4280 O   0  0  0  0  0  0  0  0  0  0  0  0
  -18.7640  -47.2690  -22.0220 C   0  0  0  0  0  0  0  0  0  0  0  0
  -18.9910  -46.2940  -22.9790 C   0  0  0  0  0  0  0  0  0  0  0  0
  -19.6580  -46.4820  -24.1200 C   0  0  0  0  0  0  0  0  0  0  0  0
  -20.1480  -46.5920  -25.1880 C   0  0  0  0  0  0  0  0  0  0  0  0
  -20.6510  -46.6680  -26.5650 C   0  0  0  0  0  0  0  0  0  0  0  0
  -15.5780  -43.7690  -21.0610 C   0  0  0  0  0  0  0  0  0  0  0  0
  -13.2980  -39.8380  -20.2840 O   0  0  0  0  0  0  0  0  0  0  0  0
  -14.0910  -40.6190  -20.8240 C   0  0  0  0  0  0  0  0  0  0  0  0
  -16.4850  -44.6440  -20.4290 C   0  0  0  0  0  0  0  0  0  0  0  0
  -16.3730  -44.8490  -19.0450 C   0  0  0  0  0  0  0  0  0  0  0  0
  -15.4460  -44.1200  -18.2860 C   0  0  0  0  0  0  0  0  0  0  0  0
  -15.2920  -44.3830  -16.7970 C   0  0  0  0  0  0  0  0  0  0  0  0
  -16.2540  -43.5930  -15.9320 C   0  0  0  0  0  0  0  0  0  0  0  0
  -17.4520  -45.4860  -21.2070 C   0  0  0  0  0  0  0  0  0  0  0  0
  -17.9160  -46.7970  -21.0040 C   0  0  0  0  0  0  0  0  0  0  0  0
  -18.0680  -44.8760  -22.7170 S   0  0  0  0  0  0  0  0  0  0  0  0
  -22.0000  -46.2280  -26.6080 O   0  0  0  0  0  0  0  0  0  0  0  0
 23 11  1  0
 11 10  1  0
 10  9  3  0
  9  8  1  0
  7  8  2  0
  7 21  1  0
  8 22  1  0
 21 20  2  0
 22 20  1  0
 20 15  1  0
 15 16  2  0
 15 12  1  0
 16 17  1  0
 12  2  2  0
 17 18  1  0
 17  3  2  0
  2  3  1  0
  2  1  1  0
 18 19  1  0
  6 19  2  0
 19  5  1  0
  1 14  1  0
  4 14  2  0
 14 13  1  0
M  END
$$$$

