DNV2_NS5A-x0566_A_1707_1_DNV2_NS5A-x0249+A+1707+1
     RDKit          3D

 16 17  0  0  0  0  0  0  0  0999 V2000
   -3.1800  -70.6910  -21.5760 O   0  0  0  0  0  0  0  0  0  0  0  0
   -3.6470  -70.0960  -20.6240 C   0  0  0  0  0  0  0  0  0  0  0  0
   -3.3160  -68.8570  -20.2440 N   0  0  0  0  0  0  0  0  0  0  0  0
   -2.5250  -67.9470  -21.0580 C   0  0  0  0  0  0  0  0  0  0  0  0
   -4.6880  -70.6230  -19.6360 C   0  0  1  0  0  0  0  0  0  0  0  0
   -4.5010  -69.7110  -18.4180 C   0  0  0  0  0  0  0  0  0  0  0  0
   -3.7910  -68.4600  -18.9280 C   0  0  0  0  0  0  0  0  0  0  0  0
   -6.0040  -70.5010  -20.2070 O   0  0  0  0  0  0  0  0  0  0  0  0
   -7.0970  -70.9910  -19.5220 C   0  0  0  0  0  0  0  0  0  0  0  0
   -8.3420  -70.6880  -20.0630 C   0  0  0  0  0  0  0  0  0  0  0  0
   -8.4070  -69.9380  -21.1770 F   0  0  0  0  0  0  0  0  0  0  0  0
   -9.5520  -71.0910  -19.5130 C   0  0  0  0  0  0  0  0  0  0  0  0
  -10.8980  -70.7560  -20.1050 C   0  0  0  0  0  0  0  0  0  0  0  0
   -9.4750  -71.8420  -18.3430 C   0  0  0  0  0  0  0  0  0  0  0  0
   -8.2540  -72.1590  -17.7680 C   0  0  0  0  0  0  0  0  0  0  0  0
   -7.0680  -71.7410  -18.3520 C   0  0  0  0  0  0  0  0  0  0  0  0
  4  3  1  0
  3  7  1  0
  7  6  1  0
  6  5  1  0
  5  8  1  6
  9  8  1  0
  9 16  2  0
 16 15  1  0
 15 14  2  0
 14 12  1  0
 13 12  1  0
 12 10  2  0
 10  9  1  0
 11 10  1  0
  5  2  1  0
  3  2  1  0
  2  1  2  0
M  END
$$$$

