Zika_NS5A-x0136_A_1016_1_Zika_NS5A-x0136+A+1016+1
     RDKit          3D

 13 14  0  0  0  0  0  0  0  0999 V2000
  -21.2870  -60.4340   -0.0700 O   0  0  0  0  0  0  0  0  0  0  0  0
  -22.1730  -59.8700    0.5630 C   0  0  0  0  0  0  0  0  0  0  0  0
  -21.8690  -58.8890    1.6590 C   0  0  0  0  0  0  0  0  0  0  0  0
  -23.4890  -60.0640    0.3150 N   0  0  0  0  0  0  0  0  0  0  0  0
  -24.2900  -59.2690   -0.5350 C   0  0  0  0  0  0  0  0  0  0  0  0
  -25.1510  -59.8670   -1.4650 C   0  0  0  0  0  0  0  0  0  0  0  0
  -25.3400  -61.1920   -1.7840 N   0  0  0  0  0  0  0  0  0  0  0  0
  -26.2660  -61.2710   -2.7940 C   0  0  0  0  0  0  0  0  0  0  0  0
  -26.6860  -60.0290   -3.1410 C   0  0  0  0  0  0  0  0  0  0  0  0
  -25.9840  -59.0990   -2.3090 C   0  0  0  0  0  0  0  0  0  0  0  0
  -25.9310  -57.7080   -2.2100 C   0  0  0  0  0  0  0  0  0  0  0  0
  -25.0590  -57.1030   -1.3190 C   0  0  0  0  0  0  0  0  0  0  0  0
  -24.2530  -57.8700   -0.4890 C   0  0  0  0  0  0  0  0  0  0  0  0
  3  2  1  0
  2  1  2  0
  4  2  1  0
  5  4  1  0
  5 13  2  0
 13 12  1  0
 12 11  2  0
 11 10  1  0
 10  9  1  0
  9  8  2  0
  8  7  1  0
  7  6  1  0
  6  5  1  0
 10  6  2  0
M  END
$$$$

