Zika_NS5A-x0309_A_1112_1_Zika_NS5A-x0351+A+1112+1
     RDKit          3D

 14 14  0  0  0  0  0  0  0  0999 V2000
  -23.6540  -31.1630  -17.6210 O   0  0  0  0  0  0  0  0  0  0  0  0
  -24.2050  -31.3870  -18.6950 C   0  0  0  0  0  0  0  0  0  0  0  0
  -23.5280  -32.2260  -19.7870 C   0  0  0  0  0  0  0  0  0  0  0  0
  -22.9580  -33.4130  -19.1580 N   0  0  0  0  0  0  0  0  0  0  0  0
  -25.4280  -30.9280  -19.0280 N   0  0  0  0  0  0  0  0  0  0  0  0
  -26.4500  -30.4840  -18.1640 C   0  0  0  0  0  0  0  0  0  0  0  0
  -27.5480  -29.8970  -18.7640 C   0  0  0  0  0  0  0  0  0  0  0  0
  -27.4150  -29.6780  -20.1030 O   0  0  0  0  0  0  0  0  0  0  0  0
  -28.0880  -30.5600  -20.9790 C   0  0  0  0  0  0  0  0  0  0  0  0
  -26.4280  -30.6370  -16.7850 C   0  0  0  0  0  0  0  0  0  0  0  0
  -27.5020  -30.2330  -16.0070 C   0  0  0  0  0  0  0  0  0  0  0  0
  -27.4680  -30.3860  -14.5070 C   0  0  0  0  0  0  0  0  0  0  0  0
  -28.6030  -29.6790  -16.6400 C   0  0  0  0  0  0  0  0  0  0  0  0
  -28.6380  -29.5060  -18.0110 C   0  0  0  0  0  0  0  0  0  0  0  0
  9  8  1  0
  8  7  1  0
  7 14  2  0
 14 13  1  0
 13 11  2  0
 12 11  1  0
 11 10  1  0
 10  6  2  0
  7  6  1  0
  6  5  1  0
  5  2  1  0
  2  1  2  0
  3  2  1  0
  4  3  1  0
M  END
$$$$

