Zika_NS5A-x0991_A_1013_1_Zika_NS5A-x0136+A+1016+1
     RDKit          3D

 15 16  0  0  0  0  0  0  0  0999 V2000
  -23.2360  -59.7830    2.1170 O   0  0  0  0  0  0  0  0  0  0  0  0
  -23.3670  -60.6560    0.9920 S   0  0  0  0  0  0  0  0  0  0  0  0
  -22.4170  -60.5560   -0.0730 O   0  0  0  0  0  0  0  0  0  0  0  0
  -23.3910  -62.3120    1.5670 C   0  0  0  0  0  0  0  0  0  0  0  0
  -24.8200  -60.3520    0.3560 N   0  0  0  0  0  0  0  0  0  0  0  0
  -25.0190  -59.3480   -0.7030 C   0  0  1  0  0  0  0  0  0  0  0  0
  -25.6770  -60.0400   -1.8770 C   0  0  0  0  0  0  0  0  0  0  0  0
  -25.2350  -61.2920   -2.2900 C   0  0  0  0  0  0  0  0  0  0  0  0
  -25.8580  -61.9590   -3.3290 C   0  0  0  0  0  0  0  0  0  0  0  0
  -26.9250  -61.3830   -3.9770 C   0  0  0  0  0  0  0  0  0  0  0  0
  -27.3870  -60.1350   -3.5920 C   0  0  0  0  0  0  0  0  0  0  0  0
  -26.7610  -59.4730   -2.5500 C   0  0  0  0  0  0  0  0  0  0  0  0
  -27.2870  -58.2490   -2.2140 O   0  0  0  0  0  0  0  0  0  0  0  0
  -26.4500  -57.4210   -1.3760 C   0  0  0  0  0  0  0  0  0  0  0  0
  -25.8660  -58.1810   -0.2110 C   0  0  0  0  0  0  0  0  0  0  0  0
  4  2  1  0
  3  2  2  0
  2  1  2  0
  5  2  1  0
  6  5  1  1
  6 15  1  0
 15 14  1  0
 14 13  1  0
 13 12  1  0
 12 11  2  0
 11 10  1  0
 10  9  2  0
  9  8  1  0
  8  7  2  0
  7  6  1  0
 12  7  1  0
M  END
$$$$

