5hmw_A_1004_1_DNV2_NS5A-x0249+A+1707+1
     RDKit          3D

 20 21  0  0  0  0  0  0  0  0999 V2000
  -15.0310  -68.2160  -20.7620 C   0  0  0  0  0  0  0  0  0  0  0  0
  -13.8180  -68.9380  -21.3250 C   0  0  0  0  0  0  0  0  0  0  0  0
  -13.7720  -69.3190  -22.6790 C   0  0  0  0  0  0  0  0  0  0  0  0
  -15.0830  -68.7210  -18.4750 O   0  0  0  0  0  0  0  0  0  0  0  0
  -11.9230  -69.2550  -26.5920 O   0  0  0  0  0  0  0  0  0  0  0  0
  -10.3700  -69.6660  -25.1060 O   0  0  0  0  0  0  0  0  0  0  0  0
   -9.7500  -70.8150  -17.7750 C   0  0  0  0  0  0  0  0  0  0  0  0
   -8.4680  -71.0890  -18.2650 C   0  0  0  0  0  0  0  0  0  0  0  0
   -8.2010  -70.9800  -19.6330 C   0  0  0  0  0  0  0  0  0  0  0  0
   -9.2170  -70.5840  -20.5160 C   0  0  0  0  0  0  0  0  0  0  0  0
  -12.7430  -69.2500  -20.4820 C   0  0  0  0  0  0  0  0  0  0  0  0
  -11.5610  -69.7330  -25.4930 C   0  0  0  0  0  0  0  0  0  0  0  0
  -12.6080  -70.4400  -24.6410 C   0  0  0  0  0  0  0  0  0  0  0  0
  -12.6470  -69.9940  -23.1840 C   0  0  0  0  0  0  0  0  0  0  0  0
  -11.5940  -70.3210  -22.3120 C   0  0  0  0  0  0  0  0  0  0  0  0
  -11.6200  -69.9300  -20.9640 C   0  0  0  0  0  0  0  0  0  0  0  0
  -15.5810  -68.9960  -19.5750 C   0  0  0  0  0  0  0  0  0  0  0  0
  -16.4700  -69.8830  -19.6990 O   0  0  0  0  0  0  0  0  0  0  0  0
  -10.5080  -70.2930  -20.0300 C   0  0  0  0  0  0  0  0  0  0  0  0
  -10.7680  -70.4340  -18.6560 C   0  0  0  0  0  0  0  0  0  0  0  0
  8  7  2  0
  8  9  1  0
  7 20  1  0
  9 10  2  0
 20 19  2  0
 10 19  1  0
 19 16  1  0
 16 11  1  0
 16 15  2  0
 11  2  2  0
 15 14  1  0
  2  1  1  0
  2  3  1  0
 14  3  2  0
 14 13  1  0
  1 17  1  0
 17 18  2  0
 17  4  1  0
 13 12  1  0
  5 12  2  0
 12  6  1  0
M  END
$$$$

