Zika_NS5A-x1041_A_1114_1_Zika_NS5A-x0351+A+1112+1
     RDKit          3D

 12 12  0  0  0  0  0  0  0  0999 V2000
  -23.9330  -29.6860  -17.6410 S   0  0  0  0  0  0  0  0  0  0  0  0
  -25.4060  -30.1430  -18.3170 C   0  0  0  0  0  0  0  0  0  0  0  0
  -25.5560  -31.2410  -19.0330 N   0  0  0  0  0  0  0  0  0  0  0  0
  -26.4910  -29.4180  -18.0590 N   0  0  0  0  0  0  0  0  0  0  0  0
  -27.8490  -29.7150  -18.2990 C   0  0  0  0  0  0  0  0  0  0  0  0
  -28.2480  -30.0130  -19.6090 C   0  0  0  0  0  0  0  0  0  0  0  0
  -27.2600  -29.9130  -20.5490 O   0  0  0  0  0  0  0  0  0  0  0  0
  -27.6060  -29.3380  -21.8080 C   0  0  0  0  0  0  0  0  0  0  0  0
  -28.7880  -29.7650  -17.2720 C   0  0  0  0  0  0  0  0  0  0  0  0
  -30.0960  -30.1170  -17.5590 C   0  0  0  0  0  0  0  0  0  0  0  0
  -30.4740  -30.4150  -18.8510 C   0  0  0  0  0  0  0  0  0  0  0  0
  -29.5560  -30.3680  -19.8830 C   0  0  0  0  0  0  0  0  0  0  0  0
  8  7  1  0
  7  6  1  0
  6 12  2  0
 12 11  1  0
 11 10  2  0
 10  9  1  0
  9  5  2  0
  6  5  1  0
  5  4  1  0
  4  2  1  0
  2  1  2  0
  3  2  1  0
M  END
$$$$

