ver_1.2
     RDKit          3D

 17 17  0  0  0  0  0  0  0  0999 V2000
   -4.0448    1.4170    1.4068 C   0  0  0  0  0  0  0  0  0  0  0  0
   -4.8351    0.9243    0.2104 C   0  0  0  0  0  0  0  0  0  0  0  0
   -4.2771   -0.7108   -0.1993 S   0  0  0  0  0  0  0  0  0  0  0  0
   -5.0318   -1.2611   -1.3658 O   0  0  0  0  0  0  0  0  0  0  0  0
   -4.4501   -1.6084    1.0037 O   0  0  0  0  0  0  0  0  0  0  0  0
   -2.5825   -0.6951   -0.5910 N   0  0  0  0  0  0  0  0  0  0  0  0
   -1.8908   -0.2425    0.5873 C   0  0  0  0  0  0  0  0  0  0  0  0
   -0.4023   -0.1935    0.3485 C   0  0  0  0  0  0  0  0  0  0  0  0
    0.2031    0.7039   -0.0525 C   0  0  0  0  0  0  0  0  0  0  0  0
    1.5369    0.7869   -0.2801 C   0  0  0  0  0  0  0  0  0  0  0  0
    2.2757   -0.1081   -0.0803 C   0  0  0  0  0  0  0  0  0  0  0  0
    3.5651   -1.0561    0.0558 C   0  0  0  0  0  0  0  0  0  0  0  0
    4.6482   -0.3830   -0.3388 C   0  0  0  0  0  0  0  0  0  0  0  0
    4.4314    0.9956   -0.7840 C   0  0  0  0  0  0  0  0  0  0  0  0
    4.0056    2.1428   -1.1178 O   0  0  0  0  0  0  0  0  0  0  0  0
    5.8004    0.7063   -0.8879 O   0  0  0  0  0  0  0  0  0  0  0  0
    1.0480   -1.4182    0.5564 S   0  0  0  0  0  0  0  0  0  0  0  0
  1  2  1  0
  2  3  1  0
  3  4  2  0
  3  5  2  0
  3  6  1  0
  6  7  1  0
  7  8  1  0
  8  9  2  0
  9 10  1  0
 10 11  2  0
 11 12  1  0
 12 13  2  3
 13 14  1  0
 14 15  2  0
 14 16  1  0
 11 17  1  0
 17  8  1  0
M  END
>  <ref_url>  (1) 
https://hippo.winokan.com

>  <submitter_name>  (1) 
Max Winokan

>  <submitter_email>  (1) 
max.winokan@diamond.ac.uk

>  <submitter_institution>  (1) 
DLS

>  <generation_date>  (1) 
2024-12-19

>  <method>  (1) 
Curated_AC

>  <SLURM_JOB_ID>  (1) 
SLURM_JOB_ID

>  <SLURM_JOB_NAME>  (1) 
SLURM_JOB_NAME

>  <csv_name>  (1) 
csv_name

>  <scratch_subdir>  (1) 
scratch_subdir

>  <fragmenstein_runtime>  (1) 
fragmenstein_runtime

>  <fragmenstein_outcome>  (1) 
fragmenstein_outcome

>  <fragmenstein_mode>  (1) 
fragmenstein_mode

>  <fragmenstein_error>  (1) 
fragmenstein_error

>  <exports>  (1) 
exports

>  <HIPPO Pose ID>  (1) 
HIPPO Pose ID

>  <HIPPO Compound ID>  (1) 
HIPPO Compound ID

>  <smiles>  (1) 
smiles

>  <ref_pdb>  (1) 
protein reference

>  <ref_mols>  (1) 
fragment inspirations

>  <original ID>  (1) 
original ID

>  <compound inchikey>  (1) 
compound inchikey

$$$$
DOGOWZSMZXLRRH-VIFPVBQESA-N
     RDKit          3D

 15 16  0  0  0  0  0  0  0  0999 V2000
  -25.3498  -57.6223   -0.0049 C   0  0  0  0  0  0  0  0  0  0  0  0
  -24.8173  -57.4063   -1.4135 C   0  0  1  0  0  0  0  0  0  0  0  0
  -25.7966  -57.7830   -2.5443 C   0  0  0  0  0  0  0  0  0  0  0  0
  -26.0516  -59.2085   -2.7073 N   0  0  0  0  0  0  0  0  0  0  0  0
  -26.9243  -59.7716   -3.5960 C   0  0  0  0  0  0  0  0  0  0  0  0
  -26.7980  -61.1325   -3.4512 C   0  0  0  0  0  0  0  0  0  0  0  0
  -25.7974  -61.2996   -2.4860 C   0  0  0  0  0  0  0  0  0  0  0  0
  -25.3495  -60.1324   -2.0193 N   0  0  0  0  0  0  0  0  0  0  0  0
  -24.2370  -56.0733   -1.6142 N   0  0  0  0  0  0  0  0  0  0  0  0
  -24.7323  -54.8576   -1.2316 C   0  0  0  0  0  0  0  0  0  0  0  0
  -23.8679  -53.9673   -0.9225 N   0  0  0  0  0  0  0  0  0  0  0  0
  -24.1420  -52.6031   -0.5064 C   0  0  0  0  0  0  0  0  0  0  0  0
  -25.5348  -52.1060   -0.8268 C   0  0  0  0  0  0  0  0  0  0  0  0
  -26.5678  -53.0811   -0.3179 C   0  0  0  0  0  0  0  0  0  0  0  0
  -26.4471  -54.6157   -1.2422 S   0  0  0  0  0  0  0  0  0  0  0  0
  2  1  1  1
  2  3  1  0
  3  4  1  0
  4  5  1  0
  5  6  2  0
  6  7  1  0
  7  8  2  0
  2  9  1  0
  9 10  1  0
 10 11  2  0
 11 12  1  0
 12 13  1  0
 13 14  1  0
 14 15  1  0
  8  4  1  0
 15 10  1  0
M  END
>  <energy_score>  (1) 
-28.112574

>  <name>  (1) 
DOGOWZSMZXLRRH-VIFPVBQESA-N

>  <distance_score>  (1) 
0.865995

>  <original ID>  (1) 
DOGOWZSMZXLRRH-VIFPVBQESA-N

>  <HIPPO Compound ID>  (1) 
743

>  <exports>  (1) 
['/opt/xchem-fragalysis-2/maxwin/BulkDock/OUTPUTS/RdRp_knitwork_cavity_b_pure_split4000_batch000_211006.sdf', '/opt/xchem-fragalysis-2/maxwin/BulkDock/OUTPUTS/RdRp_knitwork_cavity_b_pure_split4000_batch000_211006_fragalysis.sdf']

>  <fragmenstein_mode>  (1) 
['expansion']

>  <scratch_subdir>  (1) 
['/opt/xchem-fragalysis-2/maxwin/BulkDock/SCRATCH/211006/C743-P174']

>  <ref_pdb>  (1) 
z0892b

>  <ref_mols>  (1) 
z0767a,z0892b

>  <original SMILES>  (1) 
C[C@@H](Cn1cccn1)NC1=NCCCS1

>  <alias>  (1) 
None

>  <tags>  (1) 
['AC curated INTERESTING', 'Knitwork pure merge', 'Cavity B merge', 'Fragmenstein placed', 'acceptable']

>  <fragmenstein_outcome>  (1) 
['acceptable']

>  <csv_name>  (1) 
RdRp_knitwork_cavity_b_pure_split4000_batch000.csv

>  <HIPPO Pose ID>  (1) 
34829

>  <SLURM_JOB_NAME>  (1) 
BulkDock.place:Flavi_NS5_RdRp:RdRp_knitwork_cavity_b_pure_split4000_batch000

>  <fragmenstein_runtime>  (1) 
[2.6352226734161377]

>  <fragmenstein_error>  (1) 
['']

>  <SLURM_JOB_ID>  (1) 
211006

>  <inchikey>  (1) 
DOGOWZSMZXLRRH-VIFPVBQESA-N

$$$$
KASFEWYKOHRUDR-LBPRGKRZSA-N
     RDKit          3D

 18 19  0  0  0  0  0  0  0  0999 V2000
  -11.1279  -70.5622  -20.7263 C   0  0  0  0  0  0  0  0  0  0  0  0
  -12.5118  -71.0517  -20.5406 N   0  0  0  0  0  0  0  0  0  0  0  0
  -12.6182  -72.2729  -19.7852 C   0  0  0  0  0  0  0  0  0  0  0  0
  -13.3612  -73.3345  -20.2893 C   0  0  0  0  0  0  0  0  0  0  0  0
  -13.4887  -74.4965  -19.5307 C   0  0  0  0  0  0  0  0  0  0  0  0
  -12.8641  -74.5529  -18.2919 C   0  0  0  0  0  0  0  0  0  0  0  0
  -12.1340  -73.5412  -17.7684 N   0  0  0  0  0  0  0  0  0  0  0  0
  -12.0422  -72.4200  -18.5224 C   0  0  0  0  0  0  0  0  0  0  0  0
  -13.6930  -69.8667  -20.2194 S   0  0  0  0  0  0  0  0  0  0  0  0
  -13.1157  -68.5660  -20.4787 O   0  0  0  0  0  0  0  0  0  0  0  0
  -14.3002  -70.1466  -18.9286 O   0  0  0  0  0  0  0  0  0  0  0  0
  -14.9275  -70.1642  -21.4838 C   0  0  0  0  0  0  0  0  0  0  0  0
  -14.6394  -69.5529  -22.8537 C   0  0  0  0  0  0  0  0  0  0  0  0
  -13.3775  -70.0721  -23.5247 C   0  0  2  0  0  0  0  0  0  0  0  0
  -13.2365  -69.7164  -24.9911 C   0  0  0  0  0  0  0  0  0  0  0  0
  -12.1939  -70.7145  -25.4335 C   0  0  0  0  0  0  0  0  0  0  0  0
  -12.5235  -71.9386  -24.6015 C   0  0  0  0  0  0  0  0  0  0  0  0
  -13.3233  -71.5044  -23.4887 O   0  0  0  0  0  0  0  0  0  0  0  0
  1  2  1  0
  2  3  1  0
  3  4  2  0
  4  5  1  0
  5  6  2  0
  6  7  1  0
  7  8  2  0
  2  9  1  0
  9 10  2  0
  9 11  2  0
  9 12  1  0
 12 13  1  0
 14 13  1  6
 14 15  1  0
 15 16  1  0
 16 17  1  0
 17 18  1  0
  8  3  1  0
 18 14  1  0
M  END
>  <energy_score>  (2) 
-35.137092

>  <name>  (2) 
KASFEWYKOHRUDR-LBPRGKRZSA-N

>  <distance_score>  (2) 
0.699835

>  <original ID>  (2) 
KASFEWYKOHRUDR-LBPRGKRZSA-N

>  <HIPPO Compound ID>  (2) 
1941

>  <exports>  (2) 
['/opt/xchem-fragalysis-2/maxwin/BulkDock/OUTPUTS/RdRp_knitwork_thumb_site_2_pure_split4000_batch001_211011.sdf', '/opt/xchem-fragalysis-2/maxwin/BulkDock/OUTPUTS/RdRp_knitwork_thumb_site_2_pure_fragalysis.sdf']

>  <fragmenstein_mode>  (2) 
['expansion']

>  <scratch_subdir>  (2) 
['/opt/xchem-fragalysis-2/maxwin/BulkDock/SCRATCH/211011/C1941-P17']

>  <ref_pdb>  (2) 
d0174a

>  <ref_mols>  (2) 
d0174a,d0279a

>  <original SMILES>  (2) 
CN(c1cccnc1)S(=O)(=O)CC[C@@H]1CCCO1

>  <alias>  (2) 
None

>  <tags>  (2) 
['Thumb Site 2 merge', 'AC curated INTERESTING', 'Knitwork pure merge', 'Fragmenstein placed', 'acceptable']

>  <fragmenstein_outcome>  (2) 
['acceptable']

>  <csv_name>  (2) 
RdRp_knitwork_thumb_site_2_pure_split4000_batch001.csv

>  <HIPPO Pose ID>  (2) 
35589

>  <SLURM_JOB_NAME>  (2) 
BulkDock.place:Flavi_NS5_RdRp:RdRp_knitwork_thumb_site_2_pure_split4000_batch001

>  <fragmenstein_runtime>  (2) 
[1.630157470703125]

>  <fragmenstein_error>  (2) 
['']

>  <SLURM_JOB_ID>  (2) 
211011

>  <inchikey>  (2) 
KASFEWYKOHRUDR-LBPRGKRZSA-N

$$$$
ZTGAMCFPYFVHLJ-ONGXEEELSA-N
     RDKit          3D

 15 16  0  0  0  0  0  0  0  0999 V2000
  -15.7365  -40.0263  -25.7963 C   0  0  0  0  0  0  0  0  0  0  0  0
  -15.4021  -41.1808  -24.8607 C   0  0  0  0  0  0  0  0  0  0  0  0
  -15.2558  -40.7625  -23.3911 C   0  0  2  0  0  0  0  0  0  0  0  0
  -14.3335  -39.6500  -23.3085 O   0  0  0  0  0  0  0  0  0  0  0  0
  -13.4799  -39.8195  -22.1788 C   0  0  0  0  0  0  0  0  0  0  0  0
  -13.9496  -41.0425  -21.4340 C   0  0  0  0  0  0  0  0  0  0  0  0
  -14.6763  -41.8593  -22.4914 C   0  0  1  0  0  0  0  0  0  0  0  0
  -15.6261  -42.8686  -21.8265 C   0  0  0  0  0  0  0  0  0  0  0  0
  -16.4821  -43.6281  -22.7434 N   0  0  0  0  0  0  0  0  0  0  0  0
  -16.6747  -45.0266  -22.3174 C   0  0  0  0  0  0  0  0  0  0  0  0
  -17.2938  -45.2007  -20.9641 C   0  0  0  0  0  0  0  0  0  0  0  0
  -18.6276  -44.9327  -20.5714 C   0  0  0  0  0  0  0  0  0  0  0  0
  -18.7009  -45.3264  -19.2579 C   0  0  0  0  0  0  0  0  0  0  0  0
  -17.4627  -45.7939  -18.9396 N   0  0  0  0  0  0  0  0  0  0  0  0
  -16.5866  -45.7359  -19.9533 N   0  0  0  0  0  0  0  0  0  0  0  0
  1  2  1  0
  3  2  1  6
  3  4  1  0
  4  5  1  0
  5  6  1  0
  6  7  1  0
  7  8  1  1
  8  9  1  0
  9 10  1  0
 10 11  1  0
 11 12  1  0
 12 13  2  0
 13 14  1  0
 14 15  1  0
  7  3  1  0
 15 11  2  0
M  END
>  <energy_score>  (3) 
-36.108166

>  <name>  (3) 
ZTGAMCFPYFVHLJ-ONGXEEELSA-N

>  <distance_score>  (3) 
0.998031

>  <original ID>  (3) 
ZTGAMCFPYFVHLJ-ONGXEEELSA-N

>  <HIPPO Compound ID>  (3) 
18275

>  <exports>  (3) 
nan

>  <fragmenstein_mode>  (3) 
expansion

>  <scratch_subdir>  (3) 
/opt/xchem-fragalysis-2/maxwin/BulkDock/SCRATCH/220455/C36923-P140

>  <ref_pdb>  (3) 
d0160a

>  <ref_mols>  (3) 
d0160a,d0254a

>  <original SMILES>  (3) 
CC[C@@H]1OCC[C@H]1CNCc1cc[nH]n1

>  <alias>  (3) 
None

>  <tags>  (3) 
['AC curated INTERESTING', 'Knitwork impure merge', 'Fragmenstein placed', 'Green Site/RNA tunnel merge']

>  <fragmenstein_outcome>  (3) 
too moved

>  <csv_name>  (3) 
RdRp_knitwork_green_site_rna_tunnel_impure_split4000_batch004.csv

>  <HIPPO Pose ID>  (3) 
36923

>  <SLURM_JOB_NAME>  (3) 
BulkDock.place:Flavi_NS5_RdRp:RdRp_knitwork_green_site_rna_tunnel_impure_split4000_batch004

>  <fragmenstein_runtime>  (3) 
15.070182

>  <fragmenstein_error>  (3) 
None

>  <SLURM_JOB_ID>  (3) 
220455

>  <inchikey>  (3) 
ZTGAMCFPYFVHLJ-ONGXEEELSA-N

$$$$
IRPJMEHEHAKAJE-LBPRGKRZSA-N
     RDKit          3D

 22 24  0  0  0  0  0  0  0  0999 V2000
  -18.0250  -44.5887  -22.7497 O   0  0  0  0  0  0  0  0  0  0  0  0
  -17.3502  -44.2718  -21.7590 C   0  0  0  0  0  0  0  0  0  0  0  0
  -16.0824  -43.6885  -21.9239 N   0  0  0  0  0  0  0  0  0  0  0  0
  -16.0810  -42.6146  -22.8461 O   0  0  0  0  0  0  0  0  0  0  0  0
  -14.7522  -42.1922  -23.1526 C   0  0  1  0  0  0  0  0  0  0  0  0
  -14.8462  -41.2648  -24.3480 C   0  0  0  0  0  0  0  0  0  0  0  0
  -14.7100  -39.8863  -23.7452 C   0  0  0  0  0  0  0  0  0  0  0  0
  -13.8360  -40.0361  -22.6223 O   0  0  0  0  0  0  0  0  0  0  0  0
  -14.1403  -41.3206  -22.0518 C   0  0  0  0  0  0  0  0  0  0  0  0
  -17.2387  -45.2552  -20.7243 N   0  0  0  0  0  0  0  0  0  0  0  0
  -18.4996  -45.8772  -20.3487 C   0  0  0  0  0  0  0  0  0  0  0  0
  -18.5781  -46.1408  -18.8360 C   0  0  0  0  0  0  0  0  0  0  0  0
  -17.7590  -45.2148  -18.0505 N   0  0  0  0  0  0  0  0  0  0  0  0
  -18.2257  -44.7149  -16.7939 C   0  0  0  0  0  0  0  0  0  0  0  0
  -19.2887  -45.3028  -16.1021 C   0  0  0  0  0  0  0  0  0  0  0  0
  -19.7220  -44.7660  -14.8886 C   0  0  0  0  0  0  0  0  0  0  0  0
  -19.0819  -43.6460  -14.3915 C   0  0  0  0  0  0  0  0  0  0  0  0
  -18.0630  -43.0347  -15.0243 N   0  0  0  0  0  0  0  0  0  0  0  0
  -17.6606  -43.5823  -16.1990 C   0  0  0  0  0  0  0  0  0  0  0  0
  -16.4134  -45.0707  -18.4449 C   0  0  0  0  0  0  0  0  0  0  0  0
  -15.5089  -44.6960  -17.6971 O   0  0  0  0  0  0  0  0  0  0  0  0
  -16.1044  -45.5884  -19.8611 C   0  0  0  0  0  0  0  0  0  0  0  0
  1  2  2  0
  2  3  1  0
  3  4  1  0
  5  4  1  1
  5  6  1  0
  6  7  1  0
  7  8  1  0
  8  9  1  0
  2 10  1  0
 10 11  1  0
 11 12  1  0
 12 13  1  0
 13 14  1  0
 14 15  2  0
 15 16  1  0
 16 17  2  0
 17 18  1  0
 18 19  2  0
 13 20  1  0
 20 21  2  0
 20 22  1  0
  9  5  1  0
 22 10  1  0
 19 14  1  0
M  END
>  <energy_score>  (4) 
-16.83226

>  <name>  (4) 
IRPJMEHEHAKAJE-LBPRGKRZSA-N

>  <distance_score>  (4) 
0.976622

>  <original ID>  (4) 
IRPJMEHEHAKAJE-LBPRGKRZSA-N

>  <HIPPO Compound ID>  (4) 
16150

>  <exports>  (4) 
nan

>  <fragmenstein_mode>  (4) 
expansion

>  <scratch_subdir>  (4) 
/opt/xchem-fragalysis-2/maxwin/BulkDock/SCRATCH/220455/C39368-P217

>  <ref_pdb>  (4) 
d0160a

>  <ref_mols>  (4) 
d0160a,d0254a

>  <original SMILES>  (4) 
O=C(NO[C@H]1CCOC1)N1CCN(c2cccnc2)C(=O)C1

>  <alias>  (4) 
None

>  <tags>  (4) 
['AC curated INTERESTING', 'Knitwork impure merge', 'Fragmenstein placed', 'Green Site/RNA tunnel merge']

>  <fragmenstein_outcome>  (4) 
too moved

>  <csv_name>  (4) 
RdRp_knitwork_green_site_rna_tunnel_impure_split4000_batch004.csv

>  <HIPPO Pose ID>  (4) 
39368

>  <SLURM_JOB_NAME>  (4) 
BulkDock.place:Flavi_NS5_RdRp:RdRp_knitwork_green_site_rna_tunnel_impure_split4000_batch004

>  <fragmenstein_runtime>  (4) 
4.509029

>  <fragmenstein_error>  (4) 
None

>  <SLURM_JOB_ID>  (4) 
220455

>  <inchikey>  (4) 
IRPJMEHEHAKAJE-LBPRGKRZSA-N

$$$$
IYFJGUVPMIFAOX-UHFFFAOYSA-N
     RDKit          3D

 17 18  0  0  0  0  0  0  0  0999 V2000
  -14.5215  -69.4170  -22.7872 C   0  0  0  0  0  0  0  0  0  0  0  0
  -15.0796  -69.7334  -21.4178 C   0  0  0  0  0  0  0  0  0  0  0  0
  -13.8602  -69.7723  -20.1085 S   0  0  0  0  0  0  0  0  0  0  0  0
  -13.0815  -68.5608  -20.1304 O   0  0  0  0  0  0  0  0  0  0  0  0
  -14.5149  -70.1999  -18.8874 O   0  0  0  0  0  0  0  0  0  0  0  0
  -12.8549  -71.0275  -20.5044 N   0  0  0  0  0  0  0  0  0  0  0  0
  -11.7729  -70.8094  -21.4639 C   0  0  0  0  0  0  0  0  0  0  0  0
  -10.4635  -71.0696  -20.8077 C   0  0  0  0  0  0  0  0  0  0  0  0
   -9.3243  -71.2889  -21.4283 N   0  0  0  0  0  0  0  0  0  0  0  0
   -8.3987  -71.4913  -20.4418 C   0  0  0  0  0  0  0  0  0  0  0  0
   -7.0387  -71.7830  -20.5595 C   0  0  0  0  0  0  0  0  0  0  0  0
   -6.2920  -71.9481  -19.4004 C   0  0  0  0  0  0  0  0  0  0  0  0
   -4.6081  -72.2619  -19.5503 Cl  0  0  0  0  0  0  0  0  0  0  0  0
   -6.8971  -71.8920  -18.1458 C   0  0  0  0  0  0  0  0  0  0  0  0
   -8.2644  -71.6114  -18.0045 C   0  0  0  0  0  0  0  0  0  0  0  0
   -8.9798  -71.4020  -19.1823 C   0  0  0  0  0  0  0  0  0  0  0  0
  -10.2896  -71.0950  -19.4426 N   0  0  0  0  0  0  0  0  0  0  0  0
  1  2  1  0
  2  3  1  0
  3  4  2  0
  3  5  2  0
  3  6  1  0
  6  7  1  0
  7  8  1  0
  8  9  2  0
  9 10  1  0
 10 11  2  0
 11 12  1  0
 12 13  1  0
 12 14  2  0
 14 15  1  0
 15 16  2  0
 16 17  1  0
 17  8  1  0
 16 10  1  0
M  END
>  <energy_score>  (5) 
-50.163985

>  <name>  (5) 
IYFJGUVPMIFAOX-UHFFFAOYSA-N

>  <distance_score>  (5) 
0.986828

>  <original ID>  (5) 
IYFJGUVPMIFAOX-UHFFFAOYSA-N

>  <HIPPO Compound ID>  (5) 
7755

>  <exports>  (5) 
['/opt/xchem-fragalysis-2/maxwin/RdRp_FFF/quotes/JA_curated_and_manual_ordered.sdf', '/opt/xchem-fragalysis-2/maxwin/RdRp_FFF/curation/Curated_DF.sdf']

>  <fragmenstein_mode>  (5) 
expansion

>  <scratch_subdir>  (5) 
/opt/xchem-fragalysis-2/maxwin/BulkDock/SCRATCH/220466/C39464-P184

>  <ref_pdb>  (5) 
d0174a

>  <ref_mols>  (5) 
d0174a,d0693a

>  <original SMILES>  (5) 
CCS(=O)(=O)NCc1nc2cc(Cl)ccc2[nH]1

>  <alias>  (5) 
None

>  <tags>  (5) 
['DF curated INTERESTING', 'JA curated YES', 'Knitwork impure merge', 'AC curated INTERESTING', 'Fragmenstein placed', 'Green Site/RNA tunnel merge']

>  <fragmenstein_outcome>  (5) 
too moved

>  <csv_name>  (5) 
RdRp_knitwork_green_site_rna_tunnel_impure_split4000_batch015.csv

>  <HIPPO Pose ID>  (5) 
39464

>  <SLURM_JOB_NAME>  (5) 
BulkDock.place:Flavi_NS5_RdRp:RdRp_knitwork_green_site_rna_tunnel_impure_split4000_batch015

>  <fragmenstein_runtime>  (5) 
23.797484

>  <fragmenstein_error>  (5) 
None

>  <SLURM_JOB_ID>  (5) 
220466

>  <inchikey>  (5) 
IYFJGUVPMIFAOX-UHFFFAOYSA-N

$$$$
CZGWIYIRARQRDB-UHFFFAOYSA-N
     RDKit          3D

 18 19  0  0  0  0  0  0  0  0999 V2000
  -11.1939  -68.8238  -27.9463 C   0  0  0  0  0  0  0  0  0  0  0  0
  -11.0581  -69.7709  -26.8119 C   0  0  0  0  0  0  0  0  0  0  0  0
  -10.0627  -70.6888  -26.5499 C   0  0  0  0  0  0  0  0  0  0  0  0
  -10.1997  -71.4060  -25.3775 N   0  0  0  0  0  0  0  0  0  0  0  0
  -11.2922  -71.0152  -24.7528 C   0  0  0  0  0  0  0  0  0  0  0  0
  -11.6965  -71.5329  -23.4021 C   0  0  0  0  0  0  0  0  0  0  0  0
  -11.6328  -70.3713  -22.3364 C   0  0  0  0  0  0  0  0  0  0  0  0
  -11.8727  -70.3918  -21.1153 O   0  0  0  0  0  0  0  0  0  0  0  0
  -10.0680  -70.7122  -22.3472 N   0  0  0  0  0  0  0  0  0  0  0  0
   -9.2067  -69.9893  -21.4316 C   0  0  0  0  0  0  0  0  0  0  0  0
   -8.5955  -70.8675  -20.3558 C   0  0  0  0  0  0  0  0  0  0  0  0
   -9.4156  -71.1276  -19.1485 C   0  0  0  0  0  0  0  0  0  0  0  0
   -8.8352  -71.7834  -18.1434 C   0  0  0  0  0  0  0  0  0  0  0  0
   -7.4384  -72.2355  -18.2691 C   0  0  0  0  0  0  0  0  0  0  0  0
   -6.8772  -72.7759  -17.3236 O   0  0  0  0  0  0  0  0  0  0  0  0
   -6.8408  -72.0124  -19.4822 N   0  0  0  0  0  0  0  0  0  0  0  0
   -7.3847  -71.3098  -20.5207 N   0  0  0  0  0  0  0  0  0  0  0  0
  -12.2289  -69.8238  -25.5633 S   0  0  0  0  0  0  0  0  0  0  0  0
  1  2  1  0
  2  3  2  0
  3  4  1  0
  4  5  2  0
  5  6  1  0
  6  7  1  0
  7  8  2  0
  7  9  1  0
  9 10  1  0
 10 11  1  0
 11 12  1  0
 12 13  2  0
 13 14  1  0
 14 15  2  0
 14 16  1  0
 16 17  1  0
  5 18  1  0
 18  2  1  0
 17 11  2  0
M  END
>  <energy_score>  (6) 
-38.105815

>  <name>  (6) 
CZGWIYIRARQRDB-UHFFFAOYSA-N

>  <distance_score>  (6) 
0.753048

>  <original ID>  (6) 
CZGWIYIRARQRDB-UHFFFAOYSA-N

>  <HIPPO Compound ID>  (6) 
1569

>  <exports>  (6) 
nan

>  <fragmenstein_mode>  (6) 
expansion

>  <scratch_subdir>  (6) 
/opt/xchem-fragalysis-2/maxwin/BulkDock/SCRATCH/217081/C40169-P206

>  <ref_pdb>  (6) 
d0615a

>  <ref_mols>  (6) 
d0379a,d0615a

>  <original SMILES>  (6) 
Cc1cnc(CC(=O)NCc2ccc(=O)[nH]n2)s1

>  <alias>  (6) 
None

>  <tags>  (6) 
['AC curated INTERESTING', 'Knitwork pure merge', 'Fragmenstein placed', 'Green Site/RNA tunnel merge']

>  <fragmenstein_outcome>  (6) 
too moved

>  <csv_name>  (6) 
RdRp_knitwork_green_site_rna_tunnel_pure_split4000_batch010.csv

>  <HIPPO Pose ID>  (6) 
40169

>  <SLURM_JOB_NAME>  (6) 
BulkDock.place:Flavi_NS5_RdRp:RdRp_knitwork_green_site_rna_tunnel_pure_split4000_batch010

>  <fragmenstein_runtime>  (6) 
12.284058

>  <fragmenstein_error>  (6) 
None

>  <SLURM_JOB_ID>  (6) 
217081

>  <inchikey>  (6) 
CZGWIYIRARQRDB-UHFFFAOYSA-N

$$$$
ZWWLQMAPQZXPRQ-UHFFFAOYSA-N
     RDKit          3D

 15 16  0  0  0  0  0  0  0  0999 V2000
  -14.0325  -68.9881  -20.0880 O   0  0  0  0  0  0  0  0  0  0  0  0
  -13.6244  -69.2449  -21.2137 C   0  0  0  0  0  0  0  0  0  0  0  0
  -14.3755  -68.9459  -22.2961 O   0  0  0  0  0  0  0  0  0  0  0  0
  -12.3260  -69.8438  -21.5270 C   0  0  0  0  0  0  0  0  0  0  0  0
  -11.8882  -70.1973  -22.7919 C   0  0  0  0  0  0  0  0  0  0  0  0
  -10.2700  -70.7714  -22.7325 S   0  0  0  0  0  0  0  0  0  0  0  0
  -10.2684  -70.5687  -21.0340 C   0  0  0  0  0  0  0  0  0  0  0  0
   -9.1612  -70.9844  -20.1832 C   0  0  0  0  0  0  0  0  0  0  0  0
   -9.4715  -71.0763  -18.7285 C   0  0  0  0  0  0  0  0  0  0  0  0
   -8.5406  -71.5776  -17.9181 C   0  0  0  0  0  0  0  0  0  0  0  0
   -7.2296  -71.9689  -18.4578 C   0  0  0  0  0  0  0  0  0  0  0  0
   -6.3882  -72.4624  -17.7178 O   0  0  0  0  0  0  0  0  0  0  0  0
   -7.0384  -71.7330  -19.7951 N   0  0  0  0  0  0  0  0  0  0  0  0
   -7.9927  -71.2855  -20.6753 N   0  0  0  0  0  0  0  0  0  0  0  0
  -11.3839  -70.0796  -20.5262 N   0  0  0  0  0  0  0  0  0  0  0  0
  1  2  2  0
  2  3  1  0
  2  4  1  0
  4  5  2  0
  5  6  1  0
  6  7  1  0
  7  8  1  0
  8  9  1  0
  9 10  2  0
 10 11  1  0
 11 12  2  0
 11 13  1  0
 13 14  1  0
  7 15  2  0
 15  4  1  0
 14  8  2  0
M  END
>  <energy_score>  (7) 
-79.693862

>  <name>  (7) 
ZWWLQMAPQZXPRQ-UHFFFAOYSA-N

>  <distance_score>  (7) 
0.62388

>  <original ID>  (7) 
ZWWLQMAPQZXPRQ-UHFFFAOYSA-N

>  <HIPPO Compound ID>  (7) 
1778

>  <exports>  (7) 
nan

>  <fragmenstein_mode>  (7) 
expansion

>  <scratch_subdir>  (7) 
/opt/xchem-fragalysis-2/maxwin/BulkDock/SCRATCH/217082/C40318-P136

>  <ref_pdb>  (7) 
d0615a

>  <ref_mols>  (7) 
d0379a,d0615a

>  <original SMILES>  (7) 
O=C(O)c1csc(-c2ccc(=O)[nH]n2)n1

>  <alias>  (7) 
None

>  <tags>  (7) 
['AC curated INTERESTING', 'Knitwork pure merge', 'Fragmenstein placed', 'Green Site/RNA tunnel merge']

>  <fragmenstein_outcome>  (7) 
too moved

>  <csv_name>  (7) 
RdRp_knitwork_green_site_rna_tunnel_pure_split4000_batch011.csv

>  <HIPPO Pose ID>  (7) 
40318

>  <SLURM_JOB_NAME>  (7) 
BulkDock.place:Flavi_NS5_RdRp:RdRp_knitwork_green_site_rna_tunnel_pure_split4000_batch011

>  <fragmenstein_runtime>  (7) 
6.466491

>  <fragmenstein_error>  (7) 
None

>  <SLURM_JOB_ID>  (7) 
217082

>  <inchikey>  (7) 
ZWWLQMAPQZXPRQ-UHFFFAOYSA-N

$$$$
ACHLSFBFHYJWMS-UHFFFAOYSA-N
     RDKit          3D

 14 15  0  0  0  0  0  0  0  0999 V2000
  -13.8122  -69.4917  -19.6329 N   0  0  0  0  0  0  0  0  0  0  0  0
  -13.6856  -69.4589  -21.0973 C   0  0  0  0  0  0  0  0  0  0  0  0
  -12.3214  -69.9547  -21.4924 C   0  0  0  0  0  0  0  0  0  0  0  0
  -11.8826  -70.2553  -22.7681 C   0  0  0  0  0  0  0  0  0  0  0  0
  -10.2351  -70.7473  -22.7327 S   0  0  0  0  0  0  0  0  0  0  0  0
  -10.2261  -70.5707  -21.0317 C   0  0  0  0  0  0  0  0  0  0  0  0
   -9.1097  -70.9751  -20.1885 C   0  0  0  0  0  0  0  0  0  0  0  0
   -9.4173  -71.0777  -18.7329 C   0  0  0  0  0  0  0  0  0  0  0  0
   -8.4855  -71.5828  -17.9264 C   0  0  0  0  0  0  0  0  0  0  0  0
   -7.1737  -71.9641  -18.4699 C   0  0  0  0  0  0  0  0  0  0  0  0
   -6.3316  -72.4607  -17.7326 O   0  0  0  0  0  0  0  0  0  0  0  0
   -6.9826  -71.7146  -19.8047 N   0  0  0  0  0  0  0  0  0  0  0  0
   -7.9397  -71.2670  -20.6825 N   0  0  0  0  0  0  0  0  0  0  0  0
  -11.3536  -70.1283  -20.5079 N   0  0  0  0  0  0  0  0  0  0  0  0
  1  2  1  0
  2  3  1  0
  3  4  2  0
  4  5  1  0
  5  6  1  0
  6  7  1  0
  7  8  1  0
  8  9  2  0
  9 10  1  0
 10 11  2  0
 10 12  1  0
 12 13  1  0
  6 14  2  0
 14  3  1  0
 13  7  2  0
M  END
>  <energy_score>  (8) 
-80.522846

>  <name>  (8) 
ACHLSFBFHYJWMS-UHFFFAOYSA-N

>  <distance_score>  (8) 
0.91452

>  <original ID>  (8) 
ACHLSFBFHYJWMS-UHFFFAOYSA-N

>  <HIPPO Compound ID>  (8) 
1905

>  <exports>  (8) 
nan

>  <fragmenstein_mode>  (8) 
expansion

>  <scratch_subdir>  (8) 
/opt/xchem-fragalysis-2/maxwin/BulkDock/SCRATCH/220469/C40384-P144

>  <ref_pdb>  (8) 
d0615a

>  <ref_mols>  (8) 
d0379a,d0615a

>  <original SMILES>  (8) 
NCc1csc(-c2ccc(=O)[nH]n2)n1

>  <alias>  (8) 
None

>  <tags>  (8) 
['AC curated INTERESTING', 'Knitwork impure merge', 'Fragmenstein placed', 'Green Site/RNA tunnel merge']

>  <fragmenstein_outcome>  (8) 
too moved

>  <csv_name>  (8) 
RdRp_knitwork_green_site_rna_tunnel_impure_split4000_batch018.csv

>  <HIPPO Pose ID>  (8) 
40384

>  <SLURM_JOB_NAME>  (8) 
BulkDock.place:Flavi_NS5_RdRp:RdRp_knitwork_green_site_rna_tunnel_impure_split4000_batch018

>  <fragmenstein_runtime>  (8) 
4.258453

>  <fragmenstein_error>  (8) 
None

>  <SLURM_JOB_ID>  (8) 
220469

>  <inchikey>  (8) 
ACHLSFBFHYJWMS-UHFFFAOYSA-N

$$$$
FUWSPQRSVMNQLD-INIZCTEOSA-N
     RDKit          3D

 24 26  0  0  0  0  0  0  0  0999 V2000
  -15.3905  -69.9645  -22.6276 C   0  0  0  0  0  0  0  0  0  0  0  0
  -14.6850  -68.9275  -21.7884 C   0  0  0  0  0  0  0  0  0  0  0  0
  -13.8422  -69.5912  -20.3594 S   0  0  0  0  0  0  0  0  0  0  0  0
  -12.8001  -68.6678  -19.9822 O   0  0  0  0  0  0  0  0  0  0  0  0
  -14.8051  -70.0486  -19.3801 O   0  0  0  0  0  0  0  0  0  0  0  0
  -13.1220  -70.9745  -20.9545 N   0  0  0  0  0  0  0  0  0  0  0  0
  -11.7426  -70.9189  -21.4378 C   0  0  0  0  0  0  0  0  0  0  0  0
  -10.7497  -71.5293  -20.4345 C   0  0  2  0  0  0  0  0  0  0  0  0
  -11.1775  -71.4458  -18.9605 C   0  0  0  0  0  0  0  0  0  0  0  0
  -10.0743  -71.9549  -18.0438 C   0  0  0  0  0  0  0  0  0  0  0  0
   -8.7870  -71.1935  -18.3190 C   0  0  0  0  0  0  0  0  0  0  0  0
   -8.3660  -71.4032  -19.7087 N   0  0  0  0  0  0  0  0  0  0  0  0
   -7.0615  -70.7803  -19.9980 C   0  0  0  0  0  0  0  0  0  0  0  0
   -5.8362  -71.4816  -19.4448 C   0  0  0  0  0  0  0  0  0  0  0  0
   -5.9587  -72.6973  -18.7482 C   0  0  0  0  0  0  0  0  0  0  0  0
   -4.8452  -73.3504  -18.2442 C   0  0  0  0  0  0  0  0  0  0  0  0
   -3.5800  -72.8324  -18.4816 C   0  0  0  0  0  0  0  0  0  0  0  0
   -3.4098  -71.6566  -19.2213 C   0  0  0  0  0  0  0  0  0  0  0  0
   -2.1136  -71.1896  -19.4826 C   0  0  0  0  0  0  0  0  0  0  0  0
   -1.9035  -70.0230  -20.2107 C   0  0  0  0  0  0  0  0  0  0  0  0
   -2.9911  -69.3041  -20.6810 C   0  0  0  0  0  0  0  0  0  0  0  0
   -4.2868  -69.7513  -20.4116 C   0  0  0  0  0  0  0  0  0  0  0  0
   -4.5356  -70.9475  -19.6995 C   0  0  0  0  0  0  0  0  0  0  0  0
   -9.3746  -70.8704  -20.6386 C   0  0  0  0  0  0  0  0  0  0  0  0
  1  2  1  0
  2  3  1  0
  3  4  2  0
  3  5  2  0
  3  6  1  0
  6  7  1  0
  8  7  1  6
  8  9  1  0
  9 10  1  0
 10 11  1  0
 11 12  1  0
 12 13  1  0
 13 14  1  0
 14 15  2  0
 15 16  1  0
 16 17  2  0
 17 18  1  0
 18 19  2  0
 19 20  1  0
 20 21  2  0
 21 22  1  0
 22 23  2  0
 12 24  1  0
 24  8  1  0
 23 14  1  0
 23 18  1  0
M  END
>  <energy_score>  (9) 
-56.453073

>  <name>  (9) 
FUWSPQRSVMNQLD-INIZCTEOSA-N

>  <distance_score>  (9) 
0.996182

>  <original ID>  (9) 
FUWSPQRSVMNQLD-INIZCTEOSA-N

>  <HIPPO Compound ID>  (9) 
1191

>  <exports>  (9) 
['/opt/xchem-fragalysis-2/maxwin/RdRp_FFF/curation/Curated_DF.sdf']

>  <fragmenstein_mode>  (9) 
expansion

>  <scratch_subdir>  (9) 
/opt/xchem-fragalysis-2/maxwin/BulkDock/SCRATCH/220469/C42983-P208

>  <ref_pdb>  (9) 
d0174a

>  <ref_mols>  (9) 
d0174a,d0787a

>  <original SMILES>  (9) 
CCS(=O)(=O)NC[C@@H]1CCCN(Cc2cccc3ccccc23)C1

>  <alias>  (9) 
None

>  <tags>  (9) 
['DF curated INTERESTING', 'Knitwork impure merge', 'AC curated INTERESTING', 'Fragmenstein placed', 'Green Site/RNA tunnel merge']

>  <fragmenstein_outcome>  (9) 
too moved

>  <csv_name>  (9) 
RdRp_knitwork_green_site_rna_tunnel_impure_split4000_batch018.csv

>  <HIPPO Pose ID>  (9) 
42983

>  <SLURM_JOB_NAME>  (9) 
BulkDock.place:Flavi_NS5_RdRp:RdRp_knitwork_green_site_rna_tunnel_impure_split4000_batch018

>  <fragmenstein_runtime>  (9) 
11.348508

>  <fragmenstein_error>  (9) 
None

>  <SLURM_JOB_ID>  (9) 
220469

>  <inchikey>  (9) 
FUWSPQRSVMNQLD-INIZCTEOSA-N

$$$$
OKWGWXMSAAOBHL-VIFPVBQESA-N
     RDKit          3D

 14 14  0  0  0  0  0  0  0  0999 V2000
  -13.7331  -69.3116  -22.7019 C   0  0  0  0  0  0  0  0  0  0  0  0
  -14.5021  -69.8571  -21.5000 C   0  0  0  0  0  0  0  0  0  0  0  0
  -15.2112  -68.6949  -20.8025 C   0  0  0  0  0  0  0  0  0  0  0  0
  -15.5343  -70.8765  -21.9879 C   0  0  0  0  0  0  0  0  0  0  0  0
  -13.6831  -70.4483  -20.4758 O   0  0  0  0  0  0  0  0  0  0  0  0
  -12.5694  -71.2501  -20.9122 C   0  0  0  0  0  0  0  0  0  0  0  0
  -11.2734  -70.4137  -20.8618 C   0  0  2  0  0  0  0  0  0  0  0  0
  -10.7277  -70.2429  -22.1809 O   0  0  0  0  0  0  0  0  0  0  0  0
  -10.1821  -70.9415  -19.9521 C   0  0  0  0  0  0  0  0  0  0  0  0
  -10.4402  -71.3058  -18.6456 C   0  0  0  0  0  0  0  0  0  0  0  0
   -9.3520  -71.6953  -17.9000 C   0  0  0  0  0  0  0  0  0  0  0  0
   -8.0913  -71.7043  -18.3668 N   0  0  0  0  0  0  0  0  0  0  0  0
   -7.9390  -71.3251  -19.6433 C   0  0  0  0  0  0  0  0  0  0  0  0
   -8.9247  -70.9433  -20.4691 N   0  0  0  0  0  0  0  0  0  0  0  0
  1  2  1  0
  2  3  1  0
  2  4  1  0
  2  5  1  0
  5  6  1  0
  6  7  1  0
  7  8  1  6
  7  9  1  0
  9 10  2  0
 10 11  1  0
 11 12  2  0
 12 13  1  0
 13 14  2  0
 14  9  1  0
M  END
>  <energy_score>  (10) 
-22.401137

>  <name>  (10) 
OKWGWXMSAAOBHL-VIFPVBQESA-N

>  <distance_score>  (10) 
0.747604

>  <original ID>  (10) 
OKWGWXMSAAOBHL-VIFPVBQESA-N

>  <HIPPO Compound ID>  (10) 
2600

>  <exports>  (10) 
['/opt/xchem-fragalysis-2/maxwin/BulkDock/OUTPUTS/RdRp_knitwork_thumb_site_2_impure_split4000_batch001_211014.sdf', '/opt/xchem-fragalysis-2/maxwin/BulkDock/OUTPUTS/RdRp_knitwork_thumb_site_2_impure_fragalysis.sdf']

>  <fragmenstein_mode>  (10) 
['expansion']

>  <scratch_subdir>  (10) 
['/opt/xchem-fragalysis-2/maxwin/BulkDock/SCRATCH/211014/C2600-P48']

>  <ref_pdb>  (10) 
d0587a

>  <ref_mols>  (10) 
d0174a,d0587a

>  <original SMILES>  (10) 
CC(C)(C)OC[C@H](O)c1ccncn1

>  <alias>  (10) 
None

>  <tags>  (10) 
['Thumb Site 2 merge', 'Knitwork impure merge', 'AC curated INTERESTING', 'Fragmenstein placed', 'acceptable']

>  <fragmenstein_outcome>  (10) 
['acceptable']

>  <csv_name>  (10) 
RdRp_knitwork_thumb_site_2_impure_split4000_batch001.csv

>  <HIPPO Pose ID>  (10) 
44164

>  <SLURM_JOB_NAME>  (10) 
BulkDock.place:Flavi_NS5_RdRp:RdRp_knitwork_thumb_site_2_impure_split4000_batch001

>  <fragmenstein_runtime>  (10) 
[4.445181369781494]

>  <fragmenstein_error>  (10) 
['']

>  <SLURM_JOB_ID>  (10) 
211014

>  <inchikey>  (10) 
OKWGWXMSAAOBHL-VIFPVBQESA-N

$$$$
YYFRZIUNWLKYKD-LLVKDONJSA-N
     RDKit          3D

 19 19  0  0  0  0  0  0  0  0999 V2000
  -12.4682  -69.5756  -25.2503 C   0  0  0  0  0  0  0  0  0  0  0  0
  -13.5342  -70.1418  -24.3244 C   0  0  0  0  0  0  0  0  0  0  0  0
  -13.7293  -69.2939  -23.0636 C   0  0  0  0  0  0  0  0  0  0  0  0
  -14.3728  -69.9823  -21.9064 N   0  0  0  0  0  0  0  0  0  0  0  0
  -15.2293  -71.1594  -22.1726 C   0  0  0  0  0  0  0  0  0  0  0  0
  -16.6791  -70.7457  -22.3888 C   0  0  0  0  0  0  0  0  0  0  0  0
  -16.9680  -70.0540  -23.7068 C   0  0  0  0  0  0  0  0  0  0  0  0
  -13.5572  -69.9248  -20.4263 S   0  0  0  0  0  0  0  0  0  0  0  0
  -14.4182  -70.4079  -19.3694 O   0  0  0  0  0  0  0  0  0  0  0  0
  -12.8915  -68.6559  -20.2941 O   0  0  0  0  0  0  0  0  0  0  0  0
  -12.4281  -71.1250  -20.6981 N   0  0  0  0  0  0  0  0  0  0  0  0
  -11.0656  -70.6935  -21.1517 C   0  0  2  0  0  0  0  0  0  0  0  0
  -10.6346  -71.5632  -22.3251 C   0  0  0  0  0  0  0  0  0  0  0  0
  -10.0002  -70.8669  -20.0747 C   0  0  0  0  0  0  0  0  0  0  0  0
  -10.3371  -71.5852  -18.9766 N   0  0  0  0  0  0  0  0  0  0  0  0
   -9.3213  -71.9206  -18.1592 C   0  0  0  0  0  0  0  0  0  0  0  0
   -8.0095  -71.5773  -18.3915 C   0  0  0  0  0  0  0  0  0  0  0  0
   -7.7768  -70.8340  -19.5231 C   0  0  0  0  0  0  0  0  0  0  0  0
   -8.7492  -70.4594  -20.3703 N   0  0  0  0  0  0  0  0  0  0  0  0
  1  2  1  0
  2  3  1  0
  3  4  1  0
  4  5  1  0
  5  6  1  0
  6  7  1  0
  4  8  1  0
  8  9  2  0
  8 10  2  0
  8 11  1  0
 11 12  1  0
 12 13  1  6
 12 14  1  0
 14 15  2  0
 15 16  1  0
 16 17  2  0
 17 18  1  0
 18 19  2  0
 19 14  1  0
M  END
>  <energy_score>  (11) 
-53.773376

>  <name>  (11) 
YYFRZIUNWLKYKD-LLVKDONJSA-N

>  <distance_score>  (11) 
0.813982

>  <original ID>  (11) 
YYFRZIUNWLKYKD-LLVKDONJSA-N

>  <HIPPO Compound ID>  (11) 
2614

>  <exports>  (11) 
nan

>  <fragmenstein_mode>  (11) 
expansion

>  <scratch_subdir>  (11) 
/opt/xchem-fragalysis-2/maxwin/BulkDock/SCRATCH/220461/C44229-P140

>  <ref_pdb>  (11) 
d0174a

>  <ref_mols>  (11) 
d0174a,d0587a

>  <original SMILES>  (11) 
CCCN(CCC)S(=O)(=O)N[C@H](C)c1ncccn1

>  <alias>  (11) 
None

>  <tags>  (11) 
['AC curated INTERESTING', 'Knitwork impure merge', 'Fragmenstein placed', 'Green Site/RNA tunnel merge']

>  <fragmenstein_outcome>  (11) 
too moved

>  <csv_name>  (11) 
RdRp_knitwork_green_site_rna_tunnel_impure_split4000_batch010.csv

>  <HIPPO Pose ID>  (11) 
44229

>  <SLURM_JOB_NAME>  (11) 
BulkDock.place:Flavi_NS5_RdRp:RdRp_knitwork_green_site_rna_tunnel_impure_split4000_batch010

>  <fragmenstein_runtime>  (11) 
4.31198

>  <fragmenstein_error>  (11) 
None

>  <SLURM_JOB_ID>  (11) 
220461

>  <inchikey>  (11) 
YYFRZIUNWLKYKD-LLVKDONJSA-N

$$$$
PQVOAXSKDPVOCO-SECBINFHSA-N
     RDKit          3D

 18 18  0  0  0  0  0  0  0  0999 V2000
  -10.5889  -71.0509  -22.2917 C   0  0  0  0  0  0  0  0  0  0  0  0
  -11.1028  -70.5046  -20.9595 C   0  0  1  0  0  0  0  0  0  0  0  0
  -12.5215  -71.0027  -20.7479 N   0  0  0  0  0  0  0  0  0  0  0  0
  -13.6511  -69.8767  -20.2271 S   0  0  0  0  0  0  0  0  0  0  0  0
  -13.1184  -68.5467  -20.3692 O   0  0  0  0  0  0  0  0  0  0  0  0
  -14.1307  -70.3474  -18.9410 O   0  0  0  0  0  0  0  0  0  0  0  0
  -15.0160  -70.0430  -21.3591 C   0  0  0  0  0  0  0  0  0  0  0  0
  -14.7564  -70.0023  -22.8721 C   0  0  0  0  0  0  0  0  0  0  0  0
  -14.3280  -71.3800  -23.4087 C   0  0  0  0  0  0  0  0  0  0  0  0
  -13.7578  -68.9335  -23.3080 C   0  0  0  0  0  0  0  0  0  0  0  0
  -16.0643  -69.6822  -23.5114 C   0  0  0  0  0  0  0  0  0  0  0  0
  -17.0934  -69.4260  -23.9866 N   0  0  0  0  0  0  0  0  0  0  0  0
  -10.1192  -70.8966  -19.8648 C   0  0  0  0  0  0  0  0  0  0  0  0
  -10.5885  -71.5587  -18.7871 N   0  0  0  0  0  0  0  0  0  0  0  0
   -9.6657  -71.9431  -17.8836 C   0  0  0  0  0  0  0  0  0  0  0  0
   -8.3144  -71.7275  -18.0320 C   0  0  0  0  0  0  0  0  0  0  0  0
   -7.9376  -71.0550  -19.1674 C   0  0  0  0  0  0  0  0  0  0  0  0
   -8.8156  -70.6201  -20.0839 N   0  0  0  0  0  0  0  0  0  0  0  0
  2  1  1  6
  2  3  1  0
  3  4  1  0
  4  5  2  0
  4  6  2  0
  4  7  1  0
  7  8  1  0
  8  9  1  0
  8 10  1  0
  8 11  1  0
 11 12  3  0
  2 13  1  0
 13 14  2  0
 14 15  1  0
 15 16  2  0
 16 17  1  0
 17 18  2  0
 18 13  1  0
M  END
>  <energy_score>  (12) 
-39.203685

>  <name>  (12) 
PQVOAXSKDPVOCO-SECBINFHSA-N

>  <distance_score>  (12) 
0.878394

>  <original ID>  (12) 
PQVOAXSKDPVOCO-SECBINFHSA-N

>  <HIPPO Compound ID>  (12) 
2658

>  <exports>  (12) 
['/opt/xchem-fragalysis-2/maxwin/BulkDock/OUTPUTS/RdRp_knitwork_thumb_site_2_impure_split4000_batch001_211014.sdf', '/opt/xchem-fragalysis-2/maxwin/BulkDock/OUTPUTS/RdRp_knitwork_thumb_site_2_impure_fragalysis.sdf']

>  <fragmenstein_mode>  (12) 
['expansion']

>  <scratch_subdir>  (12) 
['/opt/xchem-fragalysis-2/maxwin/BulkDock/SCRATCH/211014/C2658-P17']

>  <ref_pdb>  (12) 
d0174a

>  <ref_mols>  (12) 
d0174a,d0587a

>  <original SMILES>  (12) 
C[C@@H](NS(=O)(=O)CC(C)(C)C#N)c1ncccn1

>  <alias>  (12) 
None

>  <tags>  (12) 
['Thumb Site 2 merge', 'Knitwork impure merge', 'AC curated INTERESTING', 'Fragmenstein placed', 'acceptable']

>  <fragmenstein_outcome>  (12) 
['acceptable']

>  <csv_name>  (12) 
RdRp_knitwork_thumb_site_2_impure_split4000_batch001.csv

>  <HIPPO Pose ID>  (12) 
44268

>  <SLURM_JOB_NAME>  (12) 
BulkDock.place:Flavi_NS5_RdRp:RdRp_knitwork_thumb_site_2_impure_split4000_batch001

>  <fragmenstein_runtime>  (12) 
[3.466348648071289]

>  <fragmenstein_error>  (12) 
['']

>  <SLURM_JOB_ID>  (12) 
211014

>  <inchikey>  (12) 
PQVOAXSKDPVOCO-SECBINFHSA-N

$$$$
ZGDMPLGTNQKCSV-UHFFFAOYSA-N
     RDKit          3D

 17 17  0  0  0  0  0  0  0  0999 V2000
  -14.6712  -69.5786  -22.7934 C   0  0  0  0  0  0  0  0  0  0  0  0
  -15.1827  -69.7222  -21.3750 C   0  0  0  0  0  0  0  0  0  0  0  0
  -13.8635  -69.8252  -20.1729 S   0  0  0  0  0  0  0  0  0  0  0  0
  -13.0306  -68.6549  -20.2879 O   0  0  0  0  0  0  0  0  0  0  0  0
  -14.4261  -70.2096  -18.8924 O   0  0  0  0  0  0  0  0  0  0  0  0
  -13.0127  -71.1668  -20.6934 N   0  0  0  0  0  0  0  0  0  0  0  0
  -11.6391  -70.9814  -21.1866 C   0  0  0  0  0  0  0  0  0  0  0  0
  -10.6739  -71.2325  -20.0696 C   0  0  0  0  0  0  0  0  0  0  0  0
  -10.7081  -70.7734  -18.7689 C   0  0  0  0  0  0  0  0  0  0  0  0
   -9.5816  -71.1889  -18.0082 C   0  0  0  0  0  0  0  0  0  0  0  0
   -8.6672  -71.9004  -18.7567 C   0  0  0  0  0  0  0  0  0  0  0  0
   -7.4068  -72.4012  -18.3340 C   0  0  0  0  0  0  0  0  0  0  0  0
   -6.2290  -72.0443  -18.8645 C   0  0  0  0  0  0  0  0  0  0  0  0
   -6.0364  -71.0779  -19.9481 C   0  0  0  0  0  0  0  0  0  0  0  0
   -6.8548  -70.3346  -20.4461 O   0  0  0  0  0  0  0  0  0  0  0  0
   -4.7475  -71.0796  -20.3083 O   0  0  0  0  0  0  0  0  0  0  0  0
   -9.2906  -72.2023  -20.3352 S   0  0  0  0  0  0  0  0  0  0  0  0
  1  2  1  0
  2  3  1  0
  3  4  2  0
  3  5  2  0
  3  6  1  0
  6  7  1  0
  7  8  1  0
  8  9  2  0
  9 10  1  0
 10 11  2  0
 11 12  1  0
 12 13  2  3
 13 14  1  0
 14 15  2  0
 14 16  1  0
 11 17  1  0
 17  8  1  0
M  END
>  <energy_score>  (13) 
-49.223797

>  <name>  (13) 
ZGDMPLGTNQKCSV-UHFFFAOYSA-N

>  <distance_score>  (13) 
0.98129

>  <original ID>  (13) 
ZGDMPLGTNQKCSV-UHFFFAOYSA-N

>  <HIPPO Compound ID>  (13) 
8588

>  <exports>  (13) 
['/opt/xchem-fragalysis-2/maxwin/BulkDock/OUTPUTS/RdRp_knitwork_thumb_site_2_pure_split4000_batch000_211010.sdf', '/opt/xchem-fragalysis-2/maxwin/BulkDock/OUTPUTS/RdRp_knitwork_thumb_site_2_pure_fragalysis.sdf']

>  <fragmenstein_mode>  (13) 
['expansion']

>  <scratch_subdir>  (13) 
['/opt/xchem-fragalysis-2/maxwin/BulkDock/SCRATCH/211010/C8588-P33']

>  <ref_pdb>  (13) 
d0376a

>  <ref_mols>  (13) 
d0174a,d0376a

>  <original SMILES>  (13) 
CCS(=O)(=O)NCc1ccc(C=CC(=O)O)s1

>  <alias>  (13) 
None

>  <tags>  (13) 
['Thumb Site 2 merge', 'AC curated YES', 'Knitwork pure merge', 'Fragmenstein placed', 'JA curated YES', 'acceptable']

>  <fragmenstein_outcome>  (13) 
['acceptable']

>  <csv_name>  (13) 
RdRp_knitwork_thumb_site_2_pure_split4000_batch000.csv

>  <HIPPO Pose ID>  (13) 
44789

>  <SLURM_JOB_NAME>  (13) 
BulkDock.place:Flavi_NS5_RdRp:RdRp_knitwork_thumb_site_2_pure_split4000_batch000

>  <fragmenstein_runtime>  (13) 
[3.2291181087493896]

>  <fragmenstein_error>  (13) 
['']

>  <SLURM_JOB_ID>  (13) 
211010

>  <inchikey>  (13) 
ZGDMPLGTNQKCSV-UHFFFAOYSA-N

$$$$
RGSIWFCRLMCKRU-CQSZACIVSA-N
     RDKit          3D

 22 23  0  0  0  0  0  0  0  0999 V2000
  -16.7113  -41.7345  -26.3941 C   0  0  0  0  0  0  0  0  0  0  0  0
  -15.7299  -41.1304  -25.5211 N   0  0  0  0  0  0  0  0  0  0  0  0
  -14.6965  -42.0321  -25.0880 C   0  0  0  0  0  0  0  0  0  0  0  0
  -14.7134  -42.4008  -23.6271 C   0  0  0  0  0  0  0  0  0  0  0  0
  -15.7422  -43.3447  -23.2796 N   0  0  0  0  0  0  0  0  0  0  0  0
  -16.2751  -43.1009  -21.8411 C   0  0  0  0  0  0  0  0  0  0  0  0
  -16.7644  -41.9538  -21.8612 O   0  0  0  0  0  0  0  0  0  0  0  0
  -17.0751  -44.3973  -22.1642 C   0  0  0  0  0  0  0  0  0  0  0  0
  -17.6550  -44.6887  -20.7774 C   0  0  1  0  0  0  0  0  0  0  0  0
  -18.7628  -45.7244  -20.8045 C   0  0  0  0  0  0  0  0  0  0  0  0
  -19.2641  -45.9534  -19.3819 C   0  0  0  0  0  0  0  0  0  0  0  0
  -18.1103  -46.2929  -18.4438 C   0  0  0  0  0  0  0  0  0  0  0  0
  -16.9734  -45.2953  -18.5847 C   0  0  0  0  0  0  0  0  0  0  0  0
  -16.5821  -45.1746  -19.9506 O   0  0  0  0  0  0  0  0  0  0  0  0
  -15.6388  -39.8272  -25.0455 C   0  0  0  0  0  0  0  0  0  0  0  0
  -14.7053  -39.4518  -24.3296 O   0  0  0  0  0  0  0  0  0  0  0  0
  -16.6828  -38.8305  -25.3183 C   0  0  0  0  0  0  0  0  0  0  0  0
  -17.1712  -38.1445  -24.2020 C   0  0  0  0  0  0  0  0  0  0  0  0
  -18.2281  -37.2572  -24.3393 C   0  0  0  0  0  0  0  0  0  0  0  0
  -18.7813  -37.1025  -25.5953 C   0  0  0  0  0  0  0  0  0  0  0  0
  -18.3252  -37.7244  -26.7095 N   0  0  0  0  0  0  0  0  0  0  0  0
  -17.2475  -38.5466  -26.5458 C   0  0  0  0  0  0  0  0  0  0  0  0
  1  2  1  0
  2  3  1  0
  3  4  1  0
  4  5  1  0
  5  6  1  0
  6  7  2  0
  6  8  1  0
  9  8  1  6
  9 10  1  0
 10 11  1  0
 11 12  1  0
 12 13  1  0
 13 14  1  0
  2 15  1  0
 15 16  2  0
 15 17  1  0
 17 18  2  0
 18 19  1  0
 19 20  2  0
 20 21  1  0
 21 22  2  0
 14  9  1  0
 22 17  1  0
M  END
>  <energy_score>  (14) 
-2.790234

>  <name>  (14) 
RGSIWFCRLMCKRU-CQSZACIVSA-N

>  <distance_score>  (14) 
0.960775

>  <original ID>  (14) 
RGSIWFCRLMCKRU-CQSZACIVSA-N

>  <HIPPO Compound ID>  (14) 
15070

>  <exports>  (14) 
nan

>  <fragmenstein_mode>  (14) 
expansion

>  <scratch_subdir>  (14) 
/opt/xchem-fragalysis-2/maxwin/BulkDock/SCRATCH/220461/C45423-P206

>  <ref_pdb>  (14) 
d0254a

>  <ref_mols>  (14) 
d0191a,d0254a

>  <original SMILES>  (14) 
CN(CCNC(=O)C[C@H]1CCCCO1)C(=O)c1cccnc1

>  <alias>  (14) 
None

>  <tags>  (14) 
['AC curated INTERESTING', 'Knitwork impure merge', 'Fragmenstein placed', 'Green Site/RNA tunnel merge']

>  <fragmenstein_outcome>  (14) 
too moved

>  <csv_name>  (14) 
RdRp_knitwork_green_site_rna_tunnel_impure_split4000_batch010.csv

>  <HIPPO Pose ID>  (14) 
45423

>  <SLURM_JOB_NAME>  (14) 
BulkDock.place:Flavi_NS5_RdRp:RdRp_knitwork_green_site_rna_tunnel_impure_split4000_batch010

>  <fragmenstein_runtime>  (14) 
15.032435

>  <fragmenstein_error>  (14) 
None

>  <SLURM_JOB_ID>  (14) 
220461

>  <inchikey>  (14) 
RGSIWFCRLMCKRU-CQSZACIVSA-N

$$$$
MKHBBPCZLAEZGC-ZDUSSCGKSA-N
     RDKit          3D

 19 20  0  0  0  0  0  0  0  0999 V2000
  -16.1145  -42.8918  -21.1377 O   0  0  0  0  0  0  0  0  0  0  0  0
  -15.9863  -43.4004  -22.2355 C   0  0  0  0  0  0  0  0  0  0  0  0
  -16.2884  -44.7978  -22.6065 C   0  0  0  0  0  0  0  0  0  0  0  0
  -16.9274  -45.7103  -21.8644 C   0  0  0  0  0  0  0  0  0  0  0  0
  -17.2697  -45.6005  -20.4958 C   0  0  0  0  0  0  0  0  0  0  0  0
  -18.5386  -45.4489  -19.9871 C   0  0  0  0  0  0  0  0  0  0  0  0
  -18.4563  -45.4205  -18.2731 S   0  0  0  0  0  0  0  0  0  0  0  0
  -16.7541  -45.6271  -18.3707 C   0  0  0  0  0  0  0  0  0  0  0  0
  -16.2523  -45.7463  -19.5812 N   0  0  0  0  0  0  0  0  0  0  0  0
  -15.5711  -42.7238  -23.3359 O   0  0  0  0  0  0  0  0  0  0  0  0
  -16.6273  -42.4394  -24.2620 C   0  0  0  0  0  0  0  0  0  0  0  0
  -16.0190  -42.1496  -25.6176 C   0  0  0  0  0  0  0  0  0  0  0  0
  -15.1947  -40.8600  -25.6273 C   0  0  0  0  0  0  0  0  0  0  0  0
  -15.8712  -39.7432  -26.4166 C   0  0  0  0  0  0  0  0  0  0  0  0
  -17.0966  -39.1756  -25.7204 C   0  0  1  0  0  0  0  0  0  0  0  0
  -16.7471  -38.3679  -24.4821 C   0  0  0  0  0  0  0  0  0  0  0  0
  -17.9273  -37.4467  -24.3706 C   0  0  0  0  0  0  0  0  0  0  0  0
  -18.2878  -37.1843  -25.8139 C   0  0  0  0  0  0  0  0  0  0  0  0
  -17.8153  -38.2865  -26.5956 O   0  0  0  0  0  0  0  0  0  0  0  0
  1  2  2  0
  2  3  1  0
  3  4  2  3
  4  5  1  0
  5  6  2  0
  6  7  1  0
  7  8  1  0
  8  9  2  0
  2 10  1  0
 10 11  1  0
 11 12  1  0
 12 13  1  0
 13 14  1  0
 15 14  1  6
 15 16  1  0
 16 17  1  0
 17 18  1  0
 18 19  1  0
  9  5  1  0
 19 15  1  0
M  END
>  <energy_score>  (15) 
-48.593273

>  <name>  (15) 
MKHBBPCZLAEZGC-ZDUSSCGKSA-N

>  <distance_score>  (15) 
0.986395

>  <original ID>  (15) 
MKHBBPCZLAEZGC-ZDUSSCGKSA-N

>  <HIPPO Compound ID>  (15) 
9420

>  <exports>  (15) 
['/opt/xchem-fragalysis-2/maxwin/BulkDock/OUTPUTS/RdRp_knitwork_primer_grip_n_pocket_impure_split4000_batch004_211036.sdf', '/opt/xchem-fragalysis-2/maxwin/BulkDock/OUTPUTS/RdRp_knitwork_primer_grip_n_pocket_impure_fragalysis.sdf']

>  <fragmenstein_mode>  (15) 
['expansion']

>  <scratch_subdir>  (15) 
['/opt/xchem-fragalysis-2/maxwin/BulkDock/SCRATCH/211036/C9420-P19']

>  <ref_pdb>  (15) 
d0191a

>  <ref_mols>  (15) 
d0191a,d0254a

>  <original SMILES>  (15) 
O=C(C=Cc1cscn1)OCCCC[C@H]1CCCO1

>  <alias>  (15) 
None

>  <tags>  (15) 
['Primer grip/N-pocket merge', 'Knitwork impure merge', 'AC curated YES', 'Fragmenstein placed', 'acceptable']

>  <fragmenstein_outcome>  (15) 
['acceptable']

>  <csv_name>  (15) 
RdRp_knitwork_primer_grip_n_pocket_impure_split4000_batch004.csv

>  <HIPPO Pose ID>  (15) 
46189

>  <SLURM_JOB_NAME>  (15) 
BulkDock.place:Flavi_NS5_RdRp:RdRp_knitwork_primer_grip_n_pocket_impure_split4000_batch004

>  <fragmenstein_runtime>  (15) 
[5.221753358840942]

>  <fragmenstein_error>  (15) 
['']

>  <SLURM_JOB_ID>  (15) 
211036

>  <inchikey>  (15) 
MKHBBPCZLAEZGC-ZDUSSCGKSA-N

$$$$
KSAGREYJOMINST-UHFFFAOYSA-N
     RDKit          3D

 22 23  0  0  0  0  0  0  0  0999 V2000
  -10.8609  -70.9346  -25.3140 C   0  0  0  0  0  0  0  0  0  0  0  0
  -10.6126  -70.8244  -23.8303 C   0  0  0  0  0  0  0  0  0  0  0  0
  -12.1340  -70.6172  -22.9073 S   0  0  0  0  0  0  0  0  0  0  0  0
  -12.8273  -69.4683  -23.4460 O   0  0  0  0  0  0  0  0  0  0  0  0
  -12.7968  -71.8994  -22.7951 O   0  0  0  0  0  0  0  0  0  0  0  0
  -11.6144  -70.1841  -21.3182 N   0  0  0  0  0  0  0  0  0  0  0  0
  -12.7527  -69.6535  -20.5171 C   0  0  0  0  0  0  0  0  0  0  0  0
  -10.7358  -71.1958  -20.6145 C   0  0  0  0  0  0  0  0  0  0  0  0
  -10.8350  -71.1689  -19.0755 C   0  0  0  0  0  0  0  0  0  0  0  0
   -9.6408  -71.8592  -18.4203 C   0  0  0  0  0  0  0  0  0  0  0  0
   -8.3667  -71.2802  -18.8414 N   0  0  0  0  0  0  0  0  0  0  0  0
   -7.2167  -71.6187  -18.1461 C   0  0  0  0  0  0  0  0  0  0  0  0
   -7.2690  -72.3031  -17.1224 O   0  0  0  0  0  0  0  0  0  0  0  0
   -5.8835  -71.1018  -18.6645 C   0  0  0  0  0  0  0  0  0  0  0  0
   -5.3619  -71.7633  -19.9133 C   0  0  0  0  0  0  0  0  0  0  0  0
   -4.1471  -71.3288  -20.4591 C   0  0  0  0  0  0  0  0  0  0  0  0
   -3.6102  -71.9754  -21.5680 C   0  0  0  0  0  0  0  0  0  0  0  0
   -4.3154  -73.0337  -22.1113 C   0  0  0  0  0  0  0  0  0  0  0  0
   -5.5026  -73.4633  -21.6355 N   0  0  0  0  0  0  0  0  0  0  0  0
   -5.9892  -72.8360  -20.5413 C   0  0  0  0  0  0  0  0  0  0  0  0
   -8.4020  -70.4113  -20.0028 C   0  0  0  0  0  0  0  0  0  0  0  0
   -9.2821  -70.9874  -21.0766 C   0  0  0  0  0  0  0  0  0  0  0  0
  1  2  1  0
  2  3  1  0
  3  4  2  0
  3  5  2  0
  3  6  1  0
  6  7  1  0
  6  8  1  0
  8  9  1  0
  9 10  1  0
 10 11  1  0
 11 12  1  0
 12 13  2  0
 12 14  1  0
 14 15  1  0
 15 16  2  0
 16 17  1  0
 17 18  2  0
 18 19  1  0
 19 20  2  0
 11 21  1  0
 21 22  1  0
 22  8  1  0
 20 15  1  0
M  END
>  <energy_score>  (16) 
-50.603277

>  <name>  (16) 
KSAGREYJOMINST-UHFFFAOYSA-N

>  <distance_score>  (16) 
0.948254

>  <original ID>  (16) 
KSAGREYJOMINST-UHFFFAOYSA-N

>  <HIPPO Compound ID>  (16) 
1237

>  <exports>  (16) 
['/opt/xchem-fragalysis-2/maxwin/BulkDock/OUTPUTS/RdRp_knitwork_thumb_site_2_pure_split4000_batch000_211010.sdf', '/opt/xchem-fragalysis-2/maxwin/BulkDock/OUTPUTS/RdRp_knitwork_thumb_site_2_pure_fragalysis.sdf']

>  <fragmenstein_mode>  (16) 
['expansion']

>  <scratch_subdir>  (16) 
['/opt/xchem-fragalysis-2/maxwin/BulkDock/SCRATCH/211010/C1237-P17']

>  <ref_pdb>  (16) 
d0174a

>  <ref_mols>  (16) 
d0174a,d0615a

>  <original SMILES>  (16) 
CCS(=O)(=O)N(C)C1CCN(C(=O)Cc2cccnc2)CC1

>  <alias>  (16) 
None

>  <tags>  (16) 
['Thumb Site 2 merge', 'AC curated INTERESTING', 'Knitwork pure merge', 'Fragmenstein placed', 'acceptable']

>  <fragmenstein_outcome>  (16) 
['acceptable']

>  <csv_name>  (16) 
RdRp_knitwork_thumb_site_2_pure_split4000_batch000.csv

>  <HIPPO Pose ID>  (16) 
47294

>  <SLURM_JOB_NAME>  (16) 
BulkDock.place:Flavi_NS5_RdRp:RdRp_knitwork_thumb_site_2_pure_split4000_batch000

>  <fragmenstein_runtime>  (16) 
[5.592968940734863]

>  <fragmenstein_error>  (16) 
['']

>  <SLURM_JOB_ID>  (16) 
211010

>  <inchikey>  (16) 
KSAGREYJOMINST-UHFFFAOYSA-N

$$$$
KXKSLXFPGVFZSD-OCCSQVGLSA-N
     RDKit          3D

 23 24  0  0  0  0  0  0  0  0999 V2000
  -19.3194  -35.0346  -24.4010 C   0  0  0  0  0  0  0  0  0  0  0  0
  -19.5512  -36.5271  -24.4890 C   0  0  1  0  0  0  0  0  0  0  0  0
  -20.7240  -36.7776  -25.2683 O   0  0  0  0  0  0  0  0  0  0  0  0
  -18.4207  -37.2957  -25.1152 C   0  0  0  0  0  0  0  0  0  0  0  0
  -18.3445  -37.6447  -26.3918 N   0  0  0  0  0  0  0  0  0  0  0  0
  -17.2655  -38.5065  -26.5475 C   0  0  0  0  0  0  0  0  0  0  0  0
  -16.5681  -38.8241  -25.3995 C   0  0  0  0  0  0  0  0  0  0  0  0
  -15.4783  -39.8226  -25.1976 C   0  0  0  0  0  0  0  0  0  0  0  0
  -15.7949  -40.6660  -24.0387 N   0  0  0  0  0  0  0  0  0  0  0  0
  -15.2444  -42.0044  -24.1044 C   0  0  1  0  0  0  0  0  0  0  0  0
  -14.6069  -42.5547  -22.8093 C   0  0  0  0  0  0  0  0  0  0  0  0
  -15.3800  -43.0979  -21.6066 C   0  0  0  0  0  0  0  0  0  0  0  0
  -16.0244  -42.1372  -20.6323 C   0  0  0  0  0  0  0  0  0  0  0  0
  -17.1089  -42.5930  -19.8625 C   0  0  0  0  0  0  0  0  0  0  0  0
  -17.6744  -41.7950  -18.8655 C   0  0  0  0  0  0  0  0  0  0  0  0
  -17.1634  -40.5239  -18.6217 C   0  0  0  0  0  0  0  0  0  0  0  0
  -16.0859  -40.0571  -19.3713 C   0  0  0  0  0  0  0  0  0  0  0  0
  -15.5128  -40.8620  -20.3611 C   0  0  0  0  0  0  0  0  0  0  0  0
  -16.2362  -42.9104  -24.8186 C   0  0  0  0  0  0  0  0  0  0  0  0
  -17.5196  -43.2716  -24.1052 C   0  0  0  0  0  0  0  0  0  0  0  0
  -17.8577  -42.9720  -22.9770 O   0  0  0  0  0  0  0  0  0  0  0  0
  -18.2898  -44.0567  -24.9001 O   0  0  0  0  0  0  0  0  0  0  0  0
  -17.1564  -37.8710  -24.1058 S   0  0  0  0  0  0  0  0  0  0  0  0
  2  1  1  6
  2  3  1  0
  2  4  1  0
  4  5  2  0
  5  6  1  0
  6  7  2  0
  7  8  1  0
  8  9  1  0
  9 10  1  0
 10 11  1  1
 11 12  1  0
 12 13  1  0
 13 14  2  0
 14 15  1  0
 15 16  2  0
 16 17  1  0
 17 18  2  0
 10 19  1  0
 19 20  1  0
 20 21  2  0
 20 22  1  0
  7 23  1  0
 23  4  1  0
 18 13  1  0
M  END
>  <energy_score>  (17) 
-69.985337

>  <name>  (17) 
KXKSLXFPGVFZSD-OCCSQVGLSA-N

>  <distance_score>  (17) 
0.775944

>  <original ID>  (17) 
KXKSLXFPGVFZSD-OCCSQVGLSA-N

>  <HIPPO Compound ID>  (17) 
14066

>  <exports>  (17) 
['/opt/xchem-fragalysis-2/maxwin/BulkDock/OUTPUTS/RdRp_knitwork_primer_grip_n_pocket_impure_split4000_batch005_211037.sdf', '/opt/xchem-fragalysis-2/maxwin/BulkDock/OUTPUTS/RdRp_knitwork_primer_grip_n_pocket_impure_fragalysis.sdf']

>  <fragmenstein_mode>  (17) 
['expansion']

>  <scratch_subdir>  (17) 
['/opt/xchem-fragalysis-2/maxwin/BulkDock/SCRATCH/211037/C14066-P51']

>  <ref_pdb>  (17) 
d0615b

>  <ref_mols>  (17) 
d0472a,d0615b

>  <original SMILES>  (17) 
C[C@@H](O)c1ncc(CN[C@@H](CCc2ccccc2)CC(=O)O)s1

>  <alias>  (17) 
None

>  <tags>  (17) 
['Primer grip/N-pocket merge', 'Knitwork impure merge', 'AC curated INTERESTING', 'Fragmenstein placed', 'acceptable']

>  <fragmenstein_outcome>  (17) 
['acceptable']

>  <csv_name>  (17) 
RdRp_knitwork_primer_grip_n_pocket_impure_split4000_batch005.csv

>  <HIPPO Pose ID>  (17) 
47725

>  <SLURM_JOB_NAME>  (17) 
BulkDock.place:Flavi_NS5_RdRp:RdRp_knitwork_primer_grip_n_pocket_impure_split4000_batch005

>  <fragmenstein_runtime>  (17) 
[5.8087921142578125]

>  <fragmenstein_error>  (17) 
['']

>  <SLURM_JOB_ID>  (17) 
211037

>  <inchikey>  (17) 
KXKSLXFPGVFZSD-OCCSQVGLSA-N

$$$$
DBKPJODZOLWIJA-CQSZACIVSA-N
     RDKit          3D

 22 23  0  0  0  0  0  0  0  0999 V2000
  -18.9406  -35.3739  -24.2870 C   0  0  0  0  0  0  0  0  0  0  0  0
  -19.2053  -36.8586  -24.3477 C   0  0  0  0  0  0  0  0  0  0  0  0
  -18.1913  -37.6308  -25.1335 C   0  0  0  0  0  0  0  0  0  0  0  0
  -18.3146  -37.9281  -26.4140 N   0  0  0  0  0  0  0  0  0  0  0  0
  -17.2664  -38.7566  -26.7721 C   0  0  0  0  0  0  0  0  0  0  0  0
  -16.4043  -39.1497  -25.7673 C   0  0  0  0  0  0  0  0  0  0  0  0
  -15.2435  -40.0813  -25.9144 C   0  0  0  0  0  0  0  0  0  0  0  0
  -14.8125  -40.8371  -24.7400 N   0  0  0  0  0  0  0  0  0  0  0  0
  -15.7632  -41.7380  -24.0648 C   0  0  2  0  0  0  0  0  0  0  0  0
  -14.9095  -42.4804  -22.9871 C   0  0  0  0  0  0  0  0  0  0  0  0
  -15.7420  -43.3530  -22.0597 C   0  0  0  0  0  0  0  0  0  0  0  0
  -15.1609  -43.9919  -20.8397 C   0  0  0  0  0  0  0  0  0  0  0  0
  -15.9162  -45.0327  -20.2654 C   0  0  0  0  0  0  0  0  0  0  0  0
  -15.5687  -45.5682  -19.0384 C   0  0  0  0  0  0  0  0  0  0  0  0
  -14.4720  -45.0442  -18.3615 C   0  0  0  0  0  0  0  0  0  0  0  0
  -13.6897  -44.0400  -18.9404 C   0  0  0  0  0  0  0  0  0  0  0  0
  -14.0281  -43.5174  -20.1849 C   0  0  0  0  0  0  0  0  0  0  0  0
  -16.5366  -42.7084  -24.9862 C   0  0  0  0  0  0  0  0  0  0  0  0
  -17.7672  -43.2708  -24.3107 C   0  0  0  0  0  0  0  0  0  0  0  0
  -18.1356  -43.0594  -23.1680 O   0  0  0  0  0  0  0  0  0  0  0  0
  -18.5082  -44.0656  -25.0984 O   0  0  0  0  0  0  0  0  0  0  0  0
  -16.8115  -38.2968  -24.3426 S   0  0  0  0  0  0  0  0  0  0  0  0
  1  2  1  0
  2  3  1  0
  3  4  2  0
  4  5  1  0
  5  6  2  0
  6  7  1  0
  7  8  1  0
  8  9  1  0
  9 10  1  1
 10 11  1  0
 11 12  1  0
 12 13  2  0
 13 14  1  0
 14 15  2  0
 15 16  1  0
 16 17  2  0
  9 18  1  0
 18 19  1  0
 19 20  2  0
 19 21  1  0
  6 22  1  0
 22  3  1  0
 17 12  1  0
M  END
>  <energy_score>  (18) 
-72.326061

>  <name>  (18) 
DBKPJODZOLWIJA-CQSZACIVSA-N

>  <distance_score>  (18) 
0.99014

>  <original ID>  (18) 
DBKPJODZOLWIJA-CQSZACIVSA-N

>  <HIPPO Compound ID>  (18) 
14067

>  <exports>  (18) 
nan

>  <fragmenstein_mode>  (18) 
expansion

>  <scratch_subdir>  (18) 
/opt/xchem-fragalysis-2/maxwin/BulkDock/SCRATCH/217072/C47753-P102

>  <ref_pdb>  (18) 
d0615b

>  <ref_mols>  (18) 
d0472a,d0615b

>  <original SMILES>  (18) 
CCc1ncc(CN[C@H](CCc2ccccc2)CC(=O)O)s1

>  <alias>  (18) 
None

>  <tags>  (18) 
['AC curated INTERESTING', 'Knitwork pure merge', 'Fragmenstein placed', 'Green Site/RNA tunnel merge']

>  <fragmenstein_outcome>  (18) 
too moved

>  <csv_name>  (18) 
RdRp_knitwork_green_site_rna_tunnel_pure_split4000_batch001.csv

>  <HIPPO Pose ID>  (18) 
47753

>  <SLURM_JOB_NAME>  (18) 
BulkDock.place:Flavi_NS5_RdRp:RdRp_knitwork_green_site_rna_tunnel_pure_split4000_batch001

>  <fragmenstein_runtime>  (18) 
8.56645

>  <fragmenstein_error>  (18) 
None

>  <SLURM_JOB_ID>  (18) 
217072

>  <inchikey>  (18) 
DBKPJODZOLWIJA-CQSZACIVSA-N

$$$$
ORGCRSJVVRKQHS-UHFFFAOYSA-N
     RDKit          3D

 14 16  0  0  0  0  0  0  0  0999 V2000
  -16.4674  -41.7463  -26.2781 C   0  0  0  0  0  0  0  0  0  0  0  0
  -16.0354  -41.7900  -25.0369 N   0  0  0  0  0  0  0  0  0  0  0  0
  -15.3289  -40.6168  -24.8566 C   0  0  0  0  0  0  0  0  0  0  0  0
  -14.5994  -40.3058  -23.6160 C   0  0  0  0  0  0  0  0  0  0  0  0
  -14.0050  -39.1143  -23.3938 N   0  0  0  0  0  0  0  0  0  0  0  0
  -13.4202  -39.2566  -22.1941 N   0  0  0  0  0  0  0  0  0  0  0  0
  -13.5846  -40.4923  -21.6597 C   0  0  0  0  0  0  0  0  0  0  0  0
  -14.3761  -41.1992  -22.5394 C   0  0  0  0  0  0  0  0  0  0  0  0
  -14.7685  -42.6122  -22.2939 C   0  0  0  0  0  0  0  0  0  0  0  0
  -14.5993  -42.9673  -20.8006 C   0  0  0  0  0  0  0  0  0  0  0  0
  -13.2723  -42.4691  -20.1992 C   0  0  0  0  0  0  0  0  0  0  0  0
  -13.0430  -40.9555  -20.3617 C   0  0  0  0  0  0  0  0  0  0  0  0
  -15.3982  -39.8438  -25.9953 C   0  0  0  0  0  0  0  0  0  0  0  0
  -16.0994  -40.5858  -26.9011 N   0  0  0  0  0  0  0  0  0  0  0  0
  1  2  2  0
  2  3  1  0
  3  4  1  0
  4  5  2  0
  5  6  1  0
  6  7  1  0
  7  8  2  0
  8  9  1  0
  9 10  1  0
 10 11  1  0
 11 12  1  0
  3 13  2  0
 13 14  1  0
 14  1  1  0
  8  4  1  0
 12  7  1  0
M  END
>  <energy_score>  (19) 
-46.24067

>  <name>  (19) 
ORGCRSJVVRKQHS-UHFFFAOYSA-N

>  <distance_score>  (19) 
0.927374

>  <original ID>  (19) 
ORGCRSJVVRKQHS-UHFFFAOYSA-N

>  <HIPPO Compound ID>  (19) 
23454

>  <exports>  (19) 
['/opt/xchem-fragalysis-2/maxwin/RdRp_FFF/curation/Curated_DF.sdf']

>  <fragmenstein_mode>  (19) 
expansion

>  <scratch_subdir>  (19) 
/opt/xchem-fragalysis-2/maxwin/BulkDock/SCRATCH/220454/C47755-P200

>  <ref_pdb>  (19) 
d0160a

>  <ref_mols>  (19) 
d0160a,z0103a

>  <original SMILES>  (19) 
c1nc(-c2n[nH]c3c2CCCC3)c[nH]1

>  <alias>  (19) 
None

>  <tags>  (19) 
['DF curated INTERESTING', 'Knitwork impure merge', 'AC curated INTERESTING', 'Fragmenstein placed', 'Green Site/RNA tunnel merge']

>  <fragmenstein_outcome>  (19) 
too moved

>  <csv_name>  (19) 
RdRp_knitwork_green_site_rna_tunnel_impure_split4000_batch003.csv

>  <HIPPO Pose ID>  (19) 
47755

>  <SLURM_JOB_NAME>  (19) 
BulkDock.place:Flavi_NS5_RdRp:RdRp_knitwork_green_site_rna_tunnel_impure_split4000_batch003

>  <fragmenstein_runtime>  (19) 
12.72065

>  <fragmenstein_error>  (19) 
None

>  <SLURM_JOB_ID>  (19) 
220454

>  <inchikey>  (19) 
ORGCRSJVVRKQHS-UHFFFAOYSA-N

$$$$
CSVFDYSBDWPCIW-UHFFFAOYSA-N
     RDKit          3D

 17 18  0  0  0  0  0  0  0  0999 V2000
  -16.7909  -40.1756  -27.5958 C   0  0  0  0  0  0  0  0  0  0  0  0
  -16.9545  -39.2189  -26.4762 C   0  0  0  0  0  0  0  0  0  0  0  0
  -18.0198  -38.3201  -26.4560 N   0  0  0  0  0  0  0  0  0  0  0  0
  -17.9735  -37.6451  -25.3248 C   0  0  0  0  0  0  0  0  0  0  0  0
  -16.7051  -38.0479  -24.2430 S   0  0  0  0  0  0  0  0  0  0  0  0
  -16.1175  -39.1761  -25.3804 C   0  0  0  0  0  0  0  0  0  0  0  0
  -14.8578  -39.9368  -25.1922 C   0  0  0  0  0  0  0  0  0  0  0  0
  -14.9360  -40.7593  -24.0287 O   0  0  0  0  0  0  0  0  0  0  0  0
  -15.3703  -42.0265  -24.2386 C   0  0  0  0  0  0  0  0  0  0  0  0
  -15.9462  -42.4236  -25.2434 O   0  0  0  0  0  0  0  0  0  0  0  0
  -15.0233  -42.8911  -23.0422 C   0  0  0  0  0  0  0  0  0  0  0  0
  -15.9211  -42.7644  -21.9564 O   0  0  0  0  0  0  0  0  0  0  0  0
  -16.9326  -43.6475  -22.0473 C   0  0  0  0  0  0  0  0  0  0  0  0
  -17.8897  -43.7203  -23.0858 C   0  0  0  0  0  0  0  0  0  0  0  0
  -18.8012  -44.7202  -22.8503 C   0  0  0  0  0  0  0  0  0  0  0  0
  -18.4942  -45.5435  -21.3789 S   0  0  0  0  0  0  0  0  0  0  0  0
  -17.1428  -44.5662  -21.0494 C   0  0  0  0  0  0  0  0  0  0  0  0
  1  2  1  0
  2  3  1  0
  3  4  2  0
  4  5  1  0
  5  6  1  0
  6  7  1  0
  7  8  1  0
  8  9  1  0
  9 10  2  0
  9 11  1  0
 11 12  1  0
 12 13  1  0
 13 14  1  0
 14 15  2  0
 15 16  1  0
 16 17  1  0
  6  2  2  0
 17 13  2  0
M  END
>  <energy_score>  (20) 
-223.288689

>  <name>  (20) 
CSVFDYSBDWPCIW-UHFFFAOYSA-N

>  <distance_score>  (20) 
0.960379

>  <original ID>  (20) 
CSVFDYSBDWPCIW-UHFFFAOYSA-N

>  <HIPPO Compound ID>  (20) 
14551

>  <exports>  (20) 
['/opt/xchem-fragalysis-2/maxwin/BulkDock/OUTPUTS/RdRp_knitwork_primer_grip_n_pocket_impure_split4000_batch005_211037.sdf', '/opt/xchem-fragalysis-2/maxwin/BulkDock/OUTPUTS/RdRp_knitwork_primer_grip_n_pocket_impure_fragalysis.sdf']

>  <fragmenstein_mode>  (20) 
['expansion']

>  <scratch_subdir>  (20) 
['/opt/xchem-fragalysis-2/maxwin/BulkDock/SCRATCH/211037/C14551-P51']

>  <ref_pdb>  (20) 
d0615b

>  <ref_mols>  (20) 
d0472a,d0615b

>  <original SMILES>  (20) 
Cc1ncsc1COC(=O)COc1ccsc1

>  <alias>  (20) 
None

>  <tags>  (20) 
['Primer grip/N-pocket merge', 'Knitwork impure merge', 'AC curated INTERESTING', 'Fragmenstein placed', 'acceptable']

>  <fragmenstein_outcome>  (20) 
['acceptable']

>  <csv_name>  (20) 
RdRp_knitwork_primer_grip_n_pocket_impure_split4000_batch005.csv

>  <HIPPO Pose ID>  (20) 
48051

>  <SLURM_JOB_NAME>  (20) 
BulkDock.place:Flavi_NS5_RdRp:RdRp_knitwork_primer_grip_n_pocket_impure_split4000_batch005

>  <fragmenstein_runtime>  (20) 
[5.989177465438843]

>  <fragmenstein_error>  (20) 
['']

>  <SLURM_JOB_ID>  (20) 
211037

>  <inchikey>  (20) 
CSVFDYSBDWPCIW-UHFFFAOYSA-N

$$$$
RHYGREJDHHQRDC-GFCCVEGCSA-N
     RDKit          3D

 20 21  0  0  0  0  0  0  0  0999 V2000
  -14.1344  -69.6507  -22.8431 C   0  0  0  0  0  0  0  0  0  0  0  0
  -14.7091  -69.8731  -21.4619 C   0  0  0  0  0  0  0  0  0  0  0  0
  -13.4770  -69.8932  -20.1607 S   0  0  0  0  0  0  0  0  0  0  0  0
  -12.6493  -68.7191  -20.2635 O   0  0  0  0  0  0  0  0  0  0  0  0
  -14.1609  -70.2251  -18.9233 O   0  0  0  0  0  0  0  0  0  0  0  0
  -12.5388  -71.2343  -20.5021 N   0  0  0  0  0  0  0  0  0  0  0  0
  -11.2377  -71.1442  -21.1979 C   0  0  0  0  0  0  0  0  0  0  0  0
  -10.0737  -70.7499  -20.2826 C   0  0  1  0  0  0  0  0  0  0  0  0
  -10.0717  -71.3800  -18.8956 C   0  0  0  0  0  0  0  0  0  0  0  0
   -8.6311  -71.2099  -18.4648 C   0  0  0  0  0  0  0  0  0  0  0  0
   -8.2736  -71.1889  -17.2983 O   0  0  0  0  0  0  0  0  0  0  0  0
   -7.8405  -71.1410  -19.6146 N   0  0  0  0  0  0  0  0  0  0  0  0
   -6.4481  -70.8286  -19.6593 C   0  0  0  0  0  0  0  0  0  0  0  0
   -5.6430  -71.2617  -20.7017 C   0  0  0  0  0  0  0  0  0  0  0  0
   -4.3623  -70.7074  -20.9179 C   0  0  0  0  0  0  0  0  0  0  0  0
   -3.8512  -69.7161  -20.0780 C   0  0  0  0  0  0  0  0  0  0  0  0
   -2.6108  -68.9434  -20.4316 C   0  0  0  0  0  0  0  0  0  0  0  0
   -4.5831  -69.4049  -18.9381 C   0  0  0  0  0  0  0  0  0  0  0  0
   -5.8402  -69.9965  -18.7222 C   0  0  0  0  0  0  0  0  0  0  0  0
   -8.6783  -71.1433  -20.8041 C   0  0  0  0  0  0  0  0  0  0  0  0
  1  2  1  0
  2  3  1  0
  3  4  2  0
  3  5  2  0
  3  6  1  0
  6  7  1  0
  8  7  1  6
  8  9  1  0
  9 10  1  0
 10 11  2  0
 10 12  1  0
 12 13  1  0
 13 14  2  0
 14 15  1  0
 15 16  2  0
 16 17  1  0
 16 18  1  0
 18 19  2  0
 12 20  1  0
 20  8  1  0
 19 13  1  0
M  END
>  <energy_score>  (21) 
-25.541663

>  <name>  (21) 
RHYGREJDHHQRDC-GFCCVEGCSA-N

>  <distance_score>  (21) 
0.945776

>  <original ID>  (21) 
RHYGREJDHHQRDC-GFCCVEGCSA-N

>  <HIPPO Compound ID>  (21) 
2829

>  <exports>  (21) 
nan

>  <fragmenstein_mode>  (21) 
expansion

>  <scratch_subdir>  (21) 
/opt/xchem-fragalysis-2/maxwin/BulkDock/SCRATCH/220461/C48404-P140

>  <ref_pdb>  (21) 
d0566a

>  <ref_mols>  (21) 
d0174a,d0566a

>  <original SMILES>  (21) 
CCS(=O)(=O)NC[C@H]1CC(=O)N(c2ccc(C)cc2)C1

>  <alias>  (21) 
None

>  <tags>  (21) 
['Green Site/RNA tunnel merge', 'Knitwork impure merge', 'AC curated INTERESTING', 'Fragmenstein placed', 'JA curated YES']

>  <fragmenstein_outcome>  (21) 
too moved

>  <csv_name>  (21) 
RdRp_knitwork_green_site_rna_tunnel_impure_split4000_batch010.csv

>  <HIPPO Pose ID>  (21) 
48404

>  <SLURM_JOB_NAME>  (21) 
BulkDock.place:Flavi_NS5_RdRp:RdRp_knitwork_green_site_rna_tunnel_impure_split4000_batch010

>  <fragmenstein_runtime>  (21) 
7.362617

>  <fragmenstein_error>  (21) 
None

>  <SLURM_JOB_ID>  (21) 
220461

>  <inchikey>  (21) 
RHYGREJDHHQRDC-GFCCVEGCSA-N

$$$$
FOZSYKGVMKDKBV-SNVBAGLBSA-N
     RDKit          3D

 20 21  0  0  0  0  0  0  0  0999 V2000
  -14.1479  -69.6505  -22.8418 C   0  0  0  0  0  0  0  0  0  0  0  0
  -14.7237  -69.8669  -21.4599 C   0  0  0  0  0  0  0  0  0  0  0  0
  -13.4917  -69.8900  -20.1589 S   0  0  0  0  0  0  0  0  0  0  0  0
  -12.6575  -68.7209  -20.2650 O   0  0  0  0  0  0  0  0  0  0  0  0
  -14.1759  -70.2172  -18.9204 O   0  0  0  0  0  0  0  0  0  0  0  0
  -12.5607  -71.2368  -20.4972 N   0  0  0  0  0  0  0  0  0  0  0  0
  -11.2604  -71.1538  -21.1933 C   0  0  0  0  0  0  0  0  0  0  0  0
  -10.0966  -70.7504  -20.2820 C   0  0  1  0  0  0  0  0  0  0  0  0
  -10.0955  -71.3599  -18.8850 C   0  0  0  0  0  0  0  0  0  0  0  0
   -8.6526  -71.1930  -18.4598 C   0  0  0  0  0  0  0  0  0  0  0  0
   -8.2858  -71.1647  -17.2963 O   0  0  0  0  0  0  0  0  0  0  0  0
   -7.8650  -71.1380  -19.6119 N   0  0  0  0  0  0  0  0  0  0  0  0
   -6.4701  -70.8475  -19.6629 C   0  0  0  0  0  0  0  0  0  0  0  0
   -5.6792  -71.3091  -20.7056 C   0  0  0  0  0  0  0  0  0  0  0  0
   -4.3905  -70.7832  -20.9294 C   0  0  0  0  0  0  0  0  0  0  0  0
   -3.8780  -69.7906  -20.1014 C   0  0  0  0  0  0  0  0  0  0  0  0
   -2.4308  -68.9646  -20.5266 Cl  0  0  0  0  0  0  0  0  0  0  0  0
   -4.5795  -69.4461  -18.9597 C   0  0  0  0  0  0  0  0  0  0  0  0
   -5.8459  -70.0128  -18.7340 C   0  0  0  0  0  0  0  0  0  0  0  0
   -8.7046  -71.1566  -20.8000 C   0  0  0  0  0  0  0  0  0  0  0  0
  1  2  1  0
  2  3  1  0
  3  4  2  0
  3  5  2  0
  3  6  1  0
  6  7  1  0
  8  7  1  6
  8  9  1  0
  9 10  1  0
 10 11  2  0
 10 12  1  0
 12 13  1  0
 13 14  2  0
 14 15  1  0
 15 16  2  0
 16 17  1  0
 16 18  1  0
 18 19  2  0
 12 20  1  0
 20  8  1  0
 19 13  1  0
M  END
>  <energy_score>  (22) 
-21.834161

>  <name>  (22) 
FOZSYKGVMKDKBV-SNVBAGLBSA-N

>  <distance_score>  (22) 
0.957905

>  <original ID>  (22) 
FOZSYKGVMKDKBV-SNVBAGLBSA-N

>  <HIPPO Compound ID>  (22) 
3075

>  <exports>  (22) 
['/opt/xchem-fragalysis-2/maxwin/BulkDock/OUTPUTS/RdRp_knitwork_thumb_site_2_pure_split4000_batch000_211010.sdf', '/opt/xchem-fragalysis-2/maxwin/BulkDock/OUTPUTS/RdRp_knitwork_thumb_site_2_pure_fragalysis.sdf', '/opt/xchem-fragalysis-2/maxwin/RdRp_FFF/quotes/JA_curated_and_manual_ordered.sdf']

>  <fragmenstein_mode>  (22) 
['expansion']

>  <scratch_subdir>  (22) 
['/opt/xchem-fragalysis-2/maxwin/BulkDock/SCRATCH/211010/C3075-P45']

>  <ref_pdb>  (22) 
d0566a

>  <ref_mols>  (22) 
d0174a,d0566a

>  <original SMILES>  (22) 
CCS(=O)(=O)NC[C@H]1CC(=O)N(c2ccc(Cl)cc2)C1

>  <alias>  (22) 
None

>  <tags>  (22) 
['Thumb Site 2 merge', 'AC curated INTERESTING', 'Knitwork pure merge', 'Fragmenstein placed', 'JA curated YES', 'acceptable']

>  <fragmenstein_outcome>  (22) 
['acceptable']

>  <csv_name>  (22) 
RdRp_knitwork_thumb_site_2_pure_split4000_batch000.csv

>  <HIPPO Pose ID>  (22) 
48487

>  <SLURM_JOB_NAME>  (22) 
BulkDock.place:Flavi_NS5_RdRp:RdRp_knitwork_thumb_site_2_pure_split4000_batch000

>  <fragmenstein_runtime>  (22) 
[10.632996082305908]

>  <fragmenstein_error>  (22) 
['']

>  <SLURM_JOB_ID>  (22) 
211010

>  <inchikey>  (22) 
FOZSYKGVMKDKBV-SNVBAGLBSA-N

$$$$
WOVNUBZQLSDEHQ-LBPRGKRZSA-N
     RDKit          3D

 23 25  0  0  0  0  0  0  0  0999 V2000
  -14.4912  -69.7809  -22.9163 C   0  0  0  0  0  0  0  0  0  0  0  0
  -15.0875  -70.0413  -21.5493 C   0  0  0  0  0  0  0  0  0  0  0  0
  -13.9134  -69.7824  -20.2300 S   0  0  0  0  0  0  0  0  0  0  0  0
  -13.3653  -68.4556  -20.3520 O   0  0  0  0  0  0  0  0  0  0  0  0
  -14.4820  -70.2520  -18.9829 O   0  0  0  0  0  0  0  0  0  0  0  0
  -12.6909  -70.8964  -20.6078 N   0  0  0  0  0  0  0  0  0  0  0  0
  -11.3019  -70.3572  -20.4924 C   0  0  0  0  0  0  0  0  0  0  0  0
  -10.2727  -71.4030  -20.0437 C   0  0  1  0  0  0  0  0  0  0  0  0
   -8.8425  -70.8599  -20.2939 C   0  0  0  0  0  0  0  0  0  0  0  0
   -7.8301  -71.8604  -19.9192 N   0  0  0  0  0  0  0  0  0  0  0  0
   -6.5038  -71.4440  -20.0772 C   0  0  0  0  0  0  0  0  0  0  0  0
   -6.2378  -70.1290  -20.1347 N   0  0  0  0  0  0  0  0  0  0  0  0
   -4.9401  -69.7558  -20.1905 C   0  0  0  0  0  0  0  0  0  0  0  0
   -3.9028  -70.6460  -20.2146 C   0  0  0  0  0  0  0  0  0  0  0  0
   -2.6334  -70.2422  -20.2478 F   0  0  0  0  0  0  0  0  0  0  0  0
   -4.2548  -71.9665  -20.1600 C   0  0  0  0  0  0  0  0  0  0  0  0
   -5.5390  -72.3836  -20.0695 N   0  0  0  0  0  0  0  0  0  0  0  0
   -7.9509  -72.4724  -18.5907 C   0  0  0  0  0  0  0  0  0  0  0  0
   -9.2796  -72.2887  -17.9492 C   0  0  0  0  0  0  0  0  0  0  0  0
   -9.7362  -72.5179  -16.6717 C   0  0  0  0  0  0  0  0  0  0  0  0
  -11.0356  -72.1059  -16.5471 N   0  0  0  0  0  0  0  0  0  0  0  0
  -11.3740  -71.6573  -17.7364 C   0  0  0  0  0  0  0  0  0  0  0  0
  -10.3535  -71.7700  -18.6291 N   0  0  0  0  0  0  0  0  0  0  0  0
  1  2  1  0
  2  3  1  0
  3  4  2  0
  3  5  2  0
  3  6  1  0
  6  7  1  0
  8  7  1  1
  8  9  1  0
  9 10  1  0
 10 11  1  0
 11 12  2  0
 12 13  1  0
 13 14  2  0
 14 15  1  0
 14 16  1  0
 16 17  2  0
 10 18  1  0
 18 19  1  0
 19 20  2  0
 20 21  1  0
 21 22  2  0
 22 23  1  0
 23  8  1  0
 17 11  1  0
 23 19  1  0
M  END
>  <energy_score>  (23) 
-41.904217

>  <name>  (23) 
WOVNUBZQLSDEHQ-LBPRGKRZSA-N

>  <distance_score>  (23) 
0.892961

>  <original ID>  (23) 
WOVNUBZQLSDEHQ-LBPRGKRZSA-N

>  <HIPPO Compound ID>  (23) 
3914

>  <exports>  (23) 
['/opt/xchem-fragalysis-2/maxwin/RdRp_FFF/curation/Curated_DF.sdf']

>  <fragmenstein_mode>  (23) 
expansion

>  <scratch_subdir>  (23) 
/opt/xchem-fragalysis-2/maxwin/BulkDock/SCRATCH/217082/C48890-P136

>  <ref_pdb>  (23) 
d0587a

>  <ref_mols>  (23) 
d0174a,d0587a

>  <original SMILES>  (23) 
CCS(=O)(=O)NC[C@H]1CN(c2ncc(F)cn2)Cc2cncn21

>  <alias>  (23) 
None

>  <tags>  (23) 
['DF curated INTERESTING', 'AC curated INTERESTING', 'Knitwork pure merge', 'Fragmenstein placed', 'Green Site/RNA tunnel merge']

>  <fragmenstein_outcome>  (23) 
too moved

>  <csv_name>  (23) 
RdRp_knitwork_green_site_rna_tunnel_pure_split4000_batch011.csv

>  <HIPPO Pose ID>  (23) 
48890

>  <SLURM_JOB_NAME>  (23) 
BulkDock.place:Flavi_NS5_RdRp:RdRp_knitwork_green_site_rna_tunnel_pure_split4000_batch011

>  <fragmenstein_runtime>  (23) 
7.601841

>  <fragmenstein_error>  (23) 
None

>  <SLURM_JOB_ID>  (23) 
217082

>  <inchikey>  (23) 
WOVNUBZQLSDEHQ-LBPRGKRZSA-N

$$$$
OEQSKIHPPJZKEO-UHFFFAOYSA-N
     RDKit          3D

 22 23  0  0  0  0  0  0  0  0999 V2000
  -19.3927  -45.2225  -19.2710 C   0  0  0  0  0  0  0  0  0  0  0  0
  -19.1871  -43.7821  -18.7221 C   0  0  0  0  0  0  0  0  0  0  0  0
  -18.1626  -43.2310  -18.2957 O   0  0  0  0  0  0  0  0  0  0  0  0
  -19.1555  -43.4379  -20.2846 N   0  0  0  0  0  0  0  0  0  0  0  0
  -18.8527  -42.0569  -20.6408 C   0  0  0  0  0  0  0  0  0  0  0  0
  -17.3682  -41.7683  -20.9087 C   0  0  0  0  0  0  0  0  0  0  0  0
  -16.9122  -42.0746  -22.2841 N   0  0  0  0  0  0  0  0  0  0  0  0
  -16.0724  -43.2525  -22.5771 C   0  0  0  0  0  0  0  0  0  0  0  0
  -15.3442  -43.7790  -21.3802 C   0  0  0  0  0  0  0  0  0  0  0  0
  -14.1317  -43.2255  -20.8507 C   0  0  0  0  0  0  0  0  0  0  0  0
  -13.7336  -43.8363  -19.6816 C   0  0  0  0  0  0  0  0  0  0  0  0
  -14.8179  -45.0703  -19.2047 S   0  0  0  0  0  0  0  0  0  0  0  0
  -15.7516  -44.8610  -20.6205 C   0  0  0  0  0  0  0  0  0  0  0  0
  -17.3371  -41.1723  -23.2668 C   0  0  0  0  0  0  0  0  0  0  0  0
  -18.1652  -40.2876  -23.0377 O   0  0  0  0  0  0  0  0  0  0  0  0
  -16.8865  -41.2710  -24.6619 C   0  0  0  0  0  0  0  0  0  0  0  0
  -17.8243  -41.5380  -25.6525 C   0  0  0  0  0  0  0  0  0  0  0  0
  -17.5880  -41.4099  -26.9850 N   0  0  0  0  0  0  0  0  0  0  0  0
  -16.3696  -40.9343  -27.3283 C   0  0  0  0  0  0  0  0  0  0  0  0
  -15.3761  -40.6194  -26.4125 C   0  0  0  0  0  0  0  0  0  0  0  0
  -15.6380  -40.8056  -25.0603 C   0  0  0  0  0  0  0  0  0  0  0  0
  -14.6782  -40.4974  -24.1365 O   0  0  0  0  0  0  0  0  0  0  0  0
  1  2  1  0
  2  3  2  0
  2  4  1  0
  4  5  1  0
  5  6  1  0
  6  7  1  0
  7  8  1  0
  8  9  1  0
  9 10  1  0
 10 11  2  0
 11 12  1  0
 12 13  1  0
  7 14  1  0
 14 15  2  0
 14 16  1  0
 16 17  2  0
 17 18  1  0
 18 19  2  0
 19 20  1  0
 20 21  2  0
 21 22  1  0
 13  9  2  0
 21 16  1  0
M  END
>  <energy_score>  (24) 
-31.765939

>  <name>  (24) 
OEQSKIHPPJZKEO-UHFFFAOYSA-N

>  <distance_score>  (24) 
0.960818

>  <original ID>  (24) 
OEQSKIHPPJZKEO-UHFFFAOYSA-N

>  <HIPPO Compound ID>  (24) 
21062

>  <exports>  (24) 
['/opt/xchem-fragalysis-2/maxwin/BulkDock/OUTPUTS/RdRp_knitwork_primer_grip_n_pocket_impure_split4000_batch006_211038.sdf', '/opt/xchem-fragalysis-2/maxwin/BulkDock/OUTPUTS/RdRp_knitwork_primer_grip_n_pocket_impure_fragalysis.sdf']

>  <fragmenstein_mode>  (24) 
['expansion']

>  <scratch_subdir>  (24) 
['/opt/xchem-fragalysis-2/maxwin/BulkDock/SCRATCH/211038/C21062-P12']

>  <ref_pdb>  (24) 
d0160a

>  <ref_mols>  (24) 
d0160a,d0472a

>  <original SMILES>  (24) 
CC(=O)NCCN(Cc1ccsc1)C(=O)c1cnccc1O

>  <alias>  (24) 
None

>  <tags>  (24) 
['Primer grip/N-pocket merge', 'Knitwork impure merge', 'AC curated INTERESTING', 'Fragmenstein placed', 'acceptable']

>  <fragmenstein_outcome>  (24) 
['acceptable']

>  <csv_name>  (24) 
RdRp_knitwork_primer_grip_n_pocket_impure_split4000_batch006.csv

>  <HIPPO Pose ID>  (24) 
49042

>  <SLURM_JOB_NAME>  (24) 
BulkDock.place:Flavi_NS5_RdRp:RdRp_knitwork_primer_grip_n_pocket_impure_split4000_batch006

>  <fragmenstein_runtime>  (24) 
[5.020039319992065]

>  <fragmenstein_error>  (24) 
['']

>  <SLURM_JOB_ID>  (24) 
211038

>  <inchikey>  (24) 
OEQSKIHPPJZKEO-UHFFFAOYSA-N

$$$$
HGGFUOVXQYHLMH-UHFFFAOYSA-N
     RDKit          3D

 20 21  0  0  0  0  0  0  0  0999 V2000
  -14.7074  -69.6308  -22.7213 C   0  0  0  0  0  0  0  0  0  0  0  0
  -15.1653  -69.7080  -21.2816 C   0  0  0  0  0  0  0  0  0  0  0  0
  -13.8304  -69.8204  -20.0971 S   0  0  0  0  0  0  0  0  0  0  0  0
  -12.9381  -68.7037  -20.2835 O   0  0  0  0  0  0  0  0  0  0  0  0
  -14.4211  -70.1090  -18.8034 O   0  0  0  0  0  0  0  0  0  0  0  0
  -13.0387  -71.2164  -20.5403 N   0  0  0  0  0  0  0  0  0  0  0  0
  -11.9201  -71.1176  -21.4846 C   0  0  0  0  0  0  0  0  0  0  0  0
  -10.6219  -71.1388  -20.7695 C   0  0  0  0  0  0  0  0  0  0  0  0
   -9.4572  -70.4800  -21.0864 C   0  0  0  0  0  0  0  0  0  0  0  0
   -8.5669  -70.9164  -20.1564 N   0  0  0  0  0  0  0  0  0  0  0  0
   -7.1661  -70.5653  -20.0885 C   0  0  0  0  0  0  0  0  0  0  0  0
   -6.5409  -70.7032  -18.7024 C   0  0  0  0  0  0  0  0  0  0  0  0
   -5.7112  -71.9698  -18.5773 C   0  0  0  0  0  0  0  0  0  0  0  0
   -4.5941  -71.9666  -19.5034 N   0  0  0  0  0  0  0  0  0  0  0  0
   -4.2791  -72.9238  -20.4112 C   0  0  0  0  0  0  0  0  0  0  0  0
   -3.3143  -72.4880  -21.1867 N   0  0  0  0  0  0  0  0  0  0  0  0
   -3.0536  -71.2422  -20.6922 C   0  0  0  0  0  0  0  0  0  0  0  0
   -3.8254  -70.8710  -19.6675 N   0  0  0  0  0  0  0  0  0  0  0  0
   -9.1318  -71.7948  -19.3078 N   0  0  0  0  0  0  0  0  0  0  0  0
  -10.4032  -71.9278  -19.6654 N   0  0  0  0  0  0  0  0  0  0  0  0
  1  2  1  0
  2  3  1  0
  3  4  2  0
  3  5  2  0
  3  6  1  0
  6  7  1  0
  7  8  1  0
  8  9  2  0
  9 10  1  0
 10 11  1  0
 11 12  1  0
 12 13  1  0
 13 14  1  0
 14 15  1  0
 15 16  2  0
 16 17  1  0
 17 18  2  0
 10 19  1  0
 19 20  2  0
 20  8  1  0
 18 14  1  0
M  END
>  <energy_score>  (25) 
-310.642798

>  <name>  (25) 
HGGFUOVXQYHLMH-UHFFFAOYSA-N

>  <distance_score>  (25) 
0.910974

>  <original ID>  (25) 
HGGFUOVXQYHLMH-UHFFFAOYSA-N

>  <HIPPO Compound ID>  (25) 
1623

>  <exports>  (25) 
['/opt/xchem-fragalysis-2/maxwin/BulkDock/OUTPUTS/RdRp_knitwork_thumb_site_2_impure_split4000_batch001_211014.sdf', '/opt/xchem-fragalysis-2/maxwin/BulkDock/OUTPUTS/RdRp_knitwork_thumb_site_2_impure_fragalysis.sdf']

>  <fragmenstein_mode>  (25) 
['expansion']

>  <scratch_subdir>  (25) 
['/opt/xchem-fragalysis-2/maxwin/BulkDock/SCRATCH/211014/C1623-P48']

>  <ref_pdb>  (25) 
d0587a

>  <ref_mols>  (25) 
d0174a,d0587a

>  <original SMILES>  (25) 
CCS(=O)(=O)NCc1cn(CCCn2cncn2)nn1

>  <alias>  (25) 
None

>  <tags>  (25) 
['Thumb Site 2 merge', 'Knitwork impure merge', 'AC curated INTERESTING', 'Fragmenstein placed', 'acceptable']

>  <fragmenstein_outcome>  (25) 
['acceptable']

>  <csv_name>  (25) 
RdRp_knitwork_thumb_site_2_impure_split4000_batch001.csv

>  <HIPPO Pose ID>  (25) 
49421

>  <SLURM_JOB_NAME>  (25) 
BulkDock.place:Flavi_NS5_RdRp:RdRp_knitwork_thumb_site_2_impure_split4000_batch001

>  <fragmenstein_runtime>  (25) 
[3.4395720958709717]

>  <fragmenstein_error>  (25) 
['']

>  <SLURM_JOB_ID>  (25) 
211014

>  <inchikey>  (25) 
HGGFUOVXQYHLMH-UHFFFAOYSA-N

$$$$
WLRKTYFDLUYNAQ-WFASDCNBSA-N
     RDKit          3D

 22 24  0  0  0  0  0  0  0  0999 V2000
  -12.9768  -68.8990  -22.8149 C   0  0  0  0  0  0  0  0  0  0  0  0
  -14.2242  -69.2522  -22.0433 C   0  0  1  0  0  0  0  0  0  0  0  0
  -15.1782  -70.0744  -22.8841 C   0  0  0  0  0  0  0  0  0  0  0  0
  -16.4784  -70.2994  -22.4438 C   0  0  0  0  0  0  0  0  0  0  0  0
  -17.4632  -70.6571  -23.3575 C   0  0  0  0  0  0  0  0  0  0  0  0
  -17.1851  -70.7524  -24.7152 C   0  0  0  0  0  0  0  0  0  0  0  0
  -15.8840  -70.6404  -25.1534 C   0  0  0  0  0  0  0  0  0  0  0  0
  -14.8841  -70.3512  -24.2391 C   0  0  0  0  0  0  0  0  0  0  0  0
  -13.7976  -69.8746  -20.3988 S   0  0  0  0  0  0  0  0  0  0  0  0
  -12.9005  -68.9115  -19.7967 O   0  0  0  0  0  0  0  0  0  0  0  0
  -14.9952  -70.2293  -19.6678 O   0  0  0  0  0  0  0  0  0  0  0  0
  -12.9387  -71.2747  -20.5963 N   0  0  0  0  0  0  0  0  0  0  0  0
  -11.5543  -71.2091  -21.1287 C   0  0  2  0  0  0  0  0  0  0  0  0
  -11.4245  -71.9532  -22.4652 C   0  0  0  0  0  0  0  0  0  0  0  0
  -12.3639  -72.8896  -22.7474 N   0  0  0  0  0  0  0  0  0  0  0  0
  -12.2593  -73.4980  -23.9441 C   0  0  0  0  0  0  0  0  0  0  0  0
  -11.2866  -73.1957  -24.8668 C   0  0  0  0  0  0  0  0  0  0  0  0
  -10.3937  -72.2194  -24.4938 C   0  0  0  0  0  0  0  0  0  0  0  0
  -10.4371  -71.5866  -23.3064 N   0  0  0  0  0  0  0  0  0  0  0  0
  -10.6230  -71.8429  -20.1263 C   0  0  0  0  0  0  0  0  0  0  0  0
  -10.2578  -71.1273  -18.8491 C   0  0  0  0  0  0  0  0  0  0  0  0
   -9.2290  -71.2876  -19.9349 C   0  0  0  0  0  0  0  0  0  0  0  0
  2  1  1  6
  2  3  1  0
  3  4  2  0
  4  5  1  0
  5  6  2  0
  6  7  1  0
  7  8  2  0
  2  9  1  0
  9 10  2  0
  9 11  2  0
  9 12  1  0
 13 12  1  1
 13 14  1  0
 14 15  2  0
 15 16  1  0
 16 17  2  0
 17 18  1  0
 18 19  2  0
 13 20  1  0
 20 21  1  0
 21 22  1  0
  8  3  1  0
 19 14  1  0
 22 20  1  0
M  END
>  <energy_score>  (26) 
-48.472573

>  <name>  (26) 
WLRKTYFDLUYNAQ-WFASDCNBSA-N

>  <distance_score>  (26) 
0.9886

>  <original ID>  (26) 
WLRKTYFDLUYNAQ-WFASDCNBSA-N

>  <HIPPO Compound ID>  (26) 
5802

>  <exports>  (26) 
['/opt/xchem-fragalysis-2/maxwin/BulkDock/OUTPUTS/RdRp_knitwork_thumb_site_2_impure_split4000_batch001_211014.sdf', '/opt/xchem-fragalysis-2/maxwin/BulkDock/OUTPUTS/RdRp_knitwork_thumb_site_2_impure_fragalysis.sdf', '/opt/xchem-fragalysis-2/maxwin/RdRp_FFF/curation/Curated_DF.sdf']

>  <fragmenstein_mode>  (26) 
['expansion']

>  <scratch_subdir>  (26) 
['/opt/xchem-fragalysis-2/maxwin/BulkDock/SCRATCH/211014/C5802-P48']

>  <ref_pdb>  (26) 
d0587a

>  <ref_mols>  (26) 
d0174a,d0587a

>  <original SMILES>  (26) 
C[C@@H](c1ccccc1)S(=O)(=O)N[C@H](c1ncccn1)C1CC1

>  <alias>  (26) 
None

>  <tags>  (26) 
['DF curated INTERESTING', 'Thumb Site 2 merge', 'Knitwork impure merge', 'AC curated INTERESTING', 'Fragmenstein placed', 'acceptable']

>  <fragmenstein_outcome>  (26) 
['acceptable']

>  <csv_name>  (26) 
RdRp_knitwork_thumb_site_2_impure_split4000_batch001.csv

>  <HIPPO Pose ID>  (26) 
49666

>  <SLURM_JOB_NAME>  (26) 
BulkDock.place:Flavi_NS5_RdRp:RdRp_knitwork_thumb_site_2_impure_split4000_batch001

>  <fragmenstein_runtime>  (26) 
[69.25387573242188]

>  <fragmenstein_error>  (26) 
['']

>  <SLURM_JOB_ID>  (26) 
211014

>  <inchikey>  (26) 
WLRKTYFDLUYNAQ-WFASDCNBSA-N

$$$$
KFFCQQFHRWBKTC-LLVKDONJSA-N
     RDKit          3D

 22 23  0  0  0  0  0  0  0  0999 V2000
  -18.1542  -46.0334  -22.6540 C   0  0  0  0  0  0  0  0  0  0  0  0
  -18.0845  -45.4907  -21.2493 C   0  0  0  0  0  0  0  0  0  0  0  0
  -17.0885  -46.2155  -20.5059 O   0  0  0  0  0  0  0  0  0  0  0  0
  -15.8024  -45.8421  -20.3652 C   0  0  0  0  0  0  0  0  0  0  0  0
  -15.0908  -46.4407  -19.5601 O   0  0  0  0  0  0  0  0  0  0  0  0
  -15.2628  -44.7291  -21.2134 C   0  0  0  0  0  0  0  0  0  0  0  0
  -14.8460  -43.5340  -20.3702 C   0  0  1  0  0  0  0  0  0  0  0  0
  -13.7531  -43.8305  -19.3469 C   0  0  0  0  0  0  0  0  0  0  0  0
  -14.2832  -42.5199  -21.2049 O   0  0  0  0  0  0  0  0  0  0  0  0
  -15.1076  -41.9196  -22.0916 C   0  0  0  0  0  0  0  0  0  0  0  0
  -16.2515  -42.2744  -22.3383 O   0  0  0  0  0  0  0  0  0  0  0  0
  -14.4332  -40.7692  -22.5894 C   0  0  0  0  0  0  0  0  0  0  0  0
  -13.4341  -40.0634  -21.9350 C   0  0  0  0  0  0  0  0  0  0  0  0
  -13.3107  -38.8757  -22.6413 C   0  0  0  0  0  0  0  0  0  0  0  0
  -14.1160  -38.8395  -23.6980 N   0  0  0  0  0  0  0  0  0  0  0  0
  -14.6961  -40.0771  -23.7588 N   0  0  0  0  0  0  0  0  0  0  0  0
  -15.4452  -40.4607  -24.9168 C   0  0  0  0  0  0  0  0  0  0  0  0
  -15.7798  -39.4925  -25.8660 C   0  0  0  0  0  0  0  0  0  0  0  0
  -16.5511  -39.8681  -26.9569 C   0  0  0  0  0  0  0  0  0  0  0  0
  -17.0111  -41.1194  -27.1727 N   0  0  0  0  0  0  0  0  0  0  0  0
  -16.6157  -42.0482  -26.2803 C   0  0  0  0  0  0  0  0  0  0  0  0
  -15.8368  -41.7783  -25.1620 C   0  0  0  0  0  0  0  0  0  0  0  0
  1  2  1  0
  2  3  1  0
  3  4  1  0
  4  5  2  0
  4  6  1  0
  6  7  1  0
  7  8  1  1
  7  9  1  0
  9 10  1  0
 10 11  2  0
 10 12  1  0
 12 13  2  0
 13 14  1  0
 14 15  2  0
 15 16  1  0
 16 17  1  0
 17 18  2  0
 18 19  1  0
 19 20  2  0
 20 21  1  0
 21 22  2  0
 16 12  1  0
 22 17  1  0
M  END
>  <energy_score>  (27) 
-84.655575

>  <name>  (27) 
KFFCQQFHRWBKTC-LLVKDONJSA-N

>  <distance_score>  (27) 
0.846274

>  <original ID>  (27) 
KFFCQQFHRWBKTC-LLVKDONJSA-N

>  <HIPPO Compound ID>  (27) 
9207

>  <exports>  (27) 
nan

>  <fragmenstein_mode>  (27) 
expansion

>  <scratch_subdir>  (27) 
/opt/xchem-fragalysis-2/maxwin/BulkDock/SCRATCH/220460/C50001-P173

>  <ref_pdb>  (27) 
d0160a

>  <ref_mols>  (27) 
d0160a,d0472a

>  <original SMILES>  (27) 
CCOC(=O)C[C@@H](C)OC(=O)c1ccnn1-c1ccncc1

>  <alias>  (27) 
None

>  <tags>  (27) 
['AC curated INTERESTING', 'Knitwork impure merge', 'Fragmenstein placed', 'Green Site/RNA tunnel merge']

>  <fragmenstein_outcome>  (27) 
too moved

>  <csv_name>  (27) 
RdRp_knitwork_green_site_rna_tunnel_impure_split4000_batch009.csv

>  <HIPPO Pose ID>  (27) 
50001

>  <SLURM_JOB_NAME>  (27) 
BulkDock.place:Flavi_NS5_RdRp:RdRp_knitwork_green_site_rna_tunnel_impure_split4000_batch009

>  <fragmenstein_runtime>  (27) 
1.205953

>  <fragmenstein_error>  (27) 
None

>  <SLURM_JOB_ID>  (27) 
220460

>  <inchikey>  (27) 
KFFCQQFHRWBKTC-LLVKDONJSA-N

$$$$
KFFCQQFHRWBKTC-NSHDSACASA-N
     RDKit          3D

 22 23  0  0  0  0  0  0  0  0999 V2000
  -18.1956  -46.1299  -22.5120 C   0  0  0  0  0  0  0  0  0  0  0  0
  -18.0502  -45.7887  -21.0512 C   0  0  0  0  0  0  0  0  0  0  0  0
  -16.8783  -46.4326  -20.5073 O   0  0  0  0  0  0  0  0  0  0  0  0
  -15.7465  -45.7608  -20.1769 C   0  0  0  0  0  0  0  0  0  0  0  0
  -14.9327  -46.2708  -19.4144 O   0  0  0  0  0  0  0  0  0  0  0  0
  -15.5447  -44.4325  -20.8398 C   0  0  0  0  0  0  0  0  0  0  0  0
  -14.1528  -43.8207  -20.7106 C   0  0  2  0  0  0  0  0  0  0  0  0
  -13.7800  -43.4595  -19.2758 C   0  0  0  0  0  0  0  0  0  0  0  0
  -13.9743  -42.5904  -21.4487 O   0  0  0  0  0  0  0  0  0  0  0  0
  -14.8842  -42.0618  -22.2955 C   0  0  0  0  0  0  0  0  0  0  0  0
  -15.9570  -42.5530  -22.6084 O   0  0  0  0  0  0  0  0  0  0  0  0
  -14.4030  -40.7747  -22.6802 C   0  0  0  0  0  0  0  0  0  0  0  0
  -13.5365  -39.9808  -21.9417 C   0  0  0  0  0  0  0  0  0  0  0  0
  -13.5439  -38.7468  -22.5735 C   0  0  0  0  0  0  0  0  0  0  0  0
  -14.3052  -38.7483  -23.6611 N   0  0  0  0  0  0  0  0  0  0  0  0
  -14.7466  -40.0369  -23.8040 N   0  0  0  0  0  0  0  0  0  0  0  0
  -15.4588  -40.4053  -24.9922 C   0  0  0  0  0  0  0  0  0  0  0  0
  -15.8617  -39.4056  -25.8829 C   0  0  0  0  0  0  0  0  0  0  0  0
  -16.6092  -39.7624  -26.9979 C   0  0  0  0  0  0  0  0  0  0  0  0
  -16.9855  -41.0253  -27.2920 N   0  0  0  0  0  0  0  0  0  0  0  0
  -16.5212  -41.9767  -26.4583 C   0  0  0  0  0  0  0  0  0  0  0  0
  -15.7556  -41.7256  -25.3266 C   0  0  0  0  0  0  0  0  0  0  0  0
  1  2  1  0
  2  3  1  0
  3  4  1  0
  4  5  2  0
  4  6  1  0
  6  7  1  0
  7  8  1  1
  7  9  1  0
  9 10  1  0
 10 11  2  0
 10 12  1  0
 12 13  2  0
 13 14  1  0
 14 15  2  0
 15 16  1  0
 16 17  1  0
 17 18  2  0
 18 19  1  0
 19 20  2  0
 20 21  1  0
 21 22  2  0
 16 12  1  0
 22 17  1  0
M  END
>  <energy_score>  (28) 
-80.726975

>  <name>  (28) 
KFFCQQFHRWBKTC-NSHDSACASA-N

>  <distance_score>  (28) 
0.825071

>  <original ID>  (28) 
KFFCQQFHRWBKTC-NSHDSACASA-N

>  <HIPPO Compound ID>  (28) 
9207

>  <exports>  (28) 
['/opt/xchem-fragalysis-2/maxwin/BulkDock/OUTPUTS/RdRp_knitwork_primer_grip_n_pocket_impure_split4000_batch006_211038.sdf', '/opt/xchem-fragalysis-2/maxwin/BulkDock/OUTPUTS/RdRp_knitwork_primer_grip_n_pocket_impure_fragalysis.sdf']

>  <fragmenstein_mode>  (28) 
['expansion']

>  <scratch_subdir>  (28) 
['/opt/xchem-fragalysis-2/maxwin/BulkDock/SCRATCH/211038/C9207-P42']

>  <ref_pdb>  (28) 
d0472a

>  <ref_mols>  (28) 
d0160a,d0472a

>  <original SMILES>  (28) 
CCOC(=O)C[C@H](C)OC(=O)c1ccnn1-c1ccncc1

>  <alias>  (28) 
None

>  <tags>  (28) 
['Primer grip/N-pocket merge', 'Knitwork impure merge', 'AC curated INTERESTING', 'Fragmenstein placed', 'acceptable']

>  <fragmenstein_outcome>  (28) 
['acceptable']

>  <csv_name>  (28) 
RdRp_knitwork_primer_grip_n_pocket_impure_split4000_batch006.csv

>  <HIPPO Pose ID>  (28) 
50008

>  <SLURM_JOB_NAME>  (28) 
BulkDock.place:Flavi_NS5_RdRp:RdRp_knitwork_primer_grip_n_pocket_impure_split4000_batch006

>  <fragmenstein_runtime>  (28) 
[5.590539216995239]

>  <fragmenstein_error>  (28) 
['']

>  <SLURM_JOB_ID>  (28) 
211038

>  <inchikey>  (28) 
KFFCQQFHRWBKTC-NSHDSACASA-N

$$$$
CVLSHSMLHFDUPS-MRVPVSSYSA-N
     RDKit          3D

 13 13  0  0  0  0  0  0  0  0999 V2000
  -14.2076  -69.2848  -23.0115 C   0  0  0  0  0  0  0  0  0  0  0  0
  -14.6568  -69.4771  -21.5595 C   0  0  0  0  0  0  0  0  0  0  0  0
  -15.9088  -70.3520  -21.5026 C   0  0  0  0  0  0  0  0  0  0  0  0
  -15.0240  -68.1140  -20.9696 C   0  0  0  0  0  0  0  0  0  0  0  0
  -13.6130  -69.9988  -20.7083 O   0  0  0  0  0  0  0  0  0  0  0  0
  -13.0496  -71.2560  -21.1030 C   0  0  0  0  0  0  0  0  0  0  0  0
  -11.5560  -71.1994  -21.4813 C   0  0  1  0  0  0  0  0  0  0  0  0
  -11.2924  -70.1899  -22.4622 O   0  0  0  0  0  0  0  0  0  0  0  0
  -10.5632  -71.1088  -20.3540 C   0  0  0  0  0  0  0  0  0  0  0  0
  -10.7403  -71.3717  -19.0090 C   0  0  0  0  0  0  0  0  0  0  0  0
   -9.2401  -71.2830  -18.1821 S   0  0  0  0  0  0  0  0  0  0  0  0
   -8.4713  -70.8518  -19.6541 C   0  0  0  0  0  0  0  0  0  0  0  0
   -9.2501  -70.7897  -20.7104 N   0  0  0  0  0  0  0  0  0  0  0  0
  1  2  1  0
  2  3  1  0
  2  4  1  0
  2  5  1  0
  5  6  1  0
  6  7  1  0
  7  8  1  6
  7  9  1  0
  9 10  2  0
 10 11  1  0
 11 12  1  0
 12 13  2  0
 13  9  1  0
M  END
>  <energy_score>  (29) 
-99.56737

>  <name>  (29) 
CVLSHSMLHFDUPS-MRVPVSSYSA-N

>  <distance_score>  (29) 
0.615688

>  <original ID>  (29) 
CVLSHSMLHFDUPS-MRVPVSSYSA-N

>  <HIPPO Compound ID>  (29) 
5550

>  <exports>  (29) 
nan

>  <fragmenstein_mode>  (29) 
expansion

>  <scratch_subdir>  (29) 
/opt/xchem-fragalysis-2/maxwin/BulkDock/SCRATCH/220464/C51476-P150

>  <ref_pdb>  (29) 
d0615a

>  <ref_mols>  (29) 
d0174a,d0615a

>  <original SMILES>  (29) 
CC(C)(C)OC[C@@H](O)c1cscn1

>  <alias>  (29) 
None

>  <tags>  (29) 
['Knitwork impure merge', 'Fragmenstein placed', 'Green Site/RNA tunnel merge', 'AC curated YES']

>  <fragmenstein_outcome>  (29) 
too moved

>  <csv_name>  (29) 
RdRp_knitwork_green_site_rna_tunnel_impure_split4000_batch013.csv

>  <HIPPO Pose ID>  (29) 
51476

>  <SLURM_JOB_NAME>  (29) 
BulkDock.place:Flavi_NS5_RdRp:RdRp_knitwork_green_site_rna_tunnel_impure_split4000_batch013

>  <fragmenstein_runtime>  (29) 
8.77784

>  <fragmenstein_error>  (29) 
None

>  <SLURM_JOB_ID>  (29) 
220464

>  <inchikey>  (29) 
CVLSHSMLHFDUPS-MRVPVSSYSA-N

$$$$
MJOVEFYRMHTGAB-QMMMGPOBSA-N
     RDKit          3D

 16 16  0  0  0  0  0  0  0  0999 V2000
  -14.1525  -70.0310  -24.9659 C   0  0  0  0  0  0  0  0  0  0  0  0
  -14.8747  -69.9433  -23.8398 C   0  0  0  0  0  0  0  0  0  0  0  0
  -14.5937  -68.9771  -22.7177 C   0  0  0  0  0  0  0  0  0  0  0  0
  -14.8709  -69.5756  -21.4142 N   0  0  0  0  0  0  0  0  0  0  0  0
  -16.2018  -70.1099  -21.1937 C   0  0  0  0  0  0  0  0  0  0  0  0
  -13.6952  -69.8061  -20.2659 S   0  0  0  0  0  0  0  0  0  0  0  0
  -14.3330  -70.0874  -18.9965 O   0  0  0  0  0  0  0  0  0  0  0  0
  -12.6937  -68.7857  -20.4001 O   0  0  0  0  0  0  0  0  0  0  0  0
  -13.0950  -71.2763  -20.7710 N   0  0  0  0  0  0  0  0  0  0  0  0
  -11.7180  -71.3642  -21.3253 C   0  0  1  0  0  0  0  0  0  0  0  0
  -11.5287  -70.6136  -22.6233 C   0  0  0  0  0  0  0  0  0  0  0  0
  -10.6860  -71.1612  -20.2389 C   0  0  0  0  0  0  0  0  0  0  0  0
  -10.8651  -71.5915  -19.0005 N   0  0  0  0  0  0  0  0  0  0  0  0
   -9.6964  -71.4430  -18.2814 C   0  0  0  0  0  0  0  0  0  0  0  0
   -8.6351  -70.9088  -18.9758 C   0  0  0  0  0  0  0  0  0  0  0  0
   -9.1190  -70.5305  -20.5697 S   0  0  0  0  0  0  0  0  0  0  0  0
  1  2  2  0
  2  3  1  0
  3  4  1  0
  4  5  1  0
  4  6  1  0
  6  7  2  0
  6  8  2  0
  6  9  1  0
  9 10  1  0
 10 11  1  6
 10 12  1  0
 12 13  2  0
 13 14  1  0
 14 15  2  0
 15 16  1  0
 16 12  1  0
M  END
>  <energy_score>  (30) 
-140.681179

>  <name>  (30) 
MJOVEFYRMHTGAB-QMMMGPOBSA-N

>  <distance_score>  (30) 
0.839828

>  <original ID>  (30) 
MJOVEFYRMHTGAB-QMMMGPOBSA-N

>  <HIPPO Compound ID>  (30) 
5555

>  <exports>  (30) 
nan

>  <fragmenstein_mode>  (30) 
expansion

>  <scratch_subdir>  (30) 
/opt/xchem-fragalysis-2/maxwin/BulkDock/SCRATCH/220458/C51484-P102

>  <ref_pdb>  (30) 
d0615a

>  <ref_mols>  (30) 
d0174a,d0615a

>  <original SMILES>  (30) 
C=CCN(C)S(=O)(=O)N[C@@H](C)c1nccs1

>  <alias>  (30) 
None

>  <tags>  (30) 
['AC curated INTERESTING', 'Knitwork impure merge', 'Fragmenstein placed', 'Green Site/RNA tunnel merge']

>  <fragmenstein_outcome>  (30) 
too moved

>  <csv_name>  (30) 
RdRp_knitwork_green_site_rna_tunnel_impure_split4000_batch007.csv

>  <HIPPO Pose ID>  (30) 
51484

>  <SLURM_JOB_NAME>  (30) 
BulkDock.place:Flavi_NS5_RdRp:RdRp_knitwork_green_site_rna_tunnel_impure_split4000_batch007

>  <fragmenstein_runtime>  (30) 
44.514693

>  <fragmenstein_error>  (30) 
None

>  <SLURM_JOB_ID>  (30) 
220458

>  <inchikey>  (30) 
MJOVEFYRMHTGAB-QMMMGPOBSA-N

$$$$
YZHIZPSEYPALKB-SECBINFHSA-N
     RDKit          3D

 17 17  0  0  0  0  0  0  0  0999 V2000
  -11.3088  -71.2639  -22.8247 C   0  0  0  0  0  0  0  0  0  0  0  0
  -11.5679  -70.5006  -21.5328 C   0  0  1  0  0  0  0  0  0  0  0  0
  -12.9226  -70.8547  -21.0274 N   0  0  0  0  0  0  0  0  0  0  0  0
  -13.7030  -69.6441  -20.1695 S   0  0  0  0  0  0  0  0  0  0  0  0
  -12.7248  -68.6521  -19.8012 O   0  0  0  0  0  0  0  0  0  0  0  0
  -14.5012  -70.3097  -19.1620 O   0  0  0  0  0  0  0  0  0  0  0  0
  -14.7831  -68.9048  -21.3801 C   0  0  0  0  0  0  0  0  0  0  0  0
  -15.5735  -69.8763  -22.2360 C   0  0  0  0  0  0  0  0  0  0  0  0
  -14.9065  -70.1891  -23.5793 C   0  0  0  0  0  0  0  0  0  0  0  0
  -15.8504  -70.8742  -24.5668 C   0  0  0  0  0  0  0  0  0  0  0  0
  -16.9725  -69.9959  -24.9160 C   0  0  0  0  0  0  0  0  0  0  0  0
  -17.8418  -69.2513  -25.1133 N   0  0  0  0  0  0  0  0  0  0  0  0
  -10.5502  -70.8745  -20.4814 C   0  0  0  0  0  0  0  0  0  0  0  0
  -10.7784  -71.7165  -19.4877 N   0  0  0  0  0  0  0  0  0  0  0  0
   -9.6335  -71.8491  -18.7248 C   0  0  0  0  0  0  0  0  0  0  0  0
   -8.5438  -71.1252  -19.1558 C   0  0  0  0  0  0  0  0  0  0  0  0
   -8.9561  -70.2382  -20.5585 S   0  0  0  0  0  0  0  0  0  0  0  0
  2  1  1  6
  2  3  1  0
  3  4  1  0
  4  5  2  0
  4  6  2  0
  4  7  1  0
  7  8  1  0
  8  9  1  0
  9 10  1  0
 10 11  1  0
 11 12  3  0
  2 13  1  0
 13 14  2  0
 14 15  1  0
 15 16  2  0
 16 17  1  0
 17 13  1  0
M  END
>  <energy_score>  (31) 
-96.599757

>  <name>  (31) 
YZHIZPSEYPALKB-SECBINFHSA-N

>  <distance_score>  (31) 
0.709538

>  <original ID>  (31) 
YZHIZPSEYPALKB-SECBINFHSA-N

>  <HIPPO Compound ID>  (31) 
5616

>  <exports>  (31) 
['/opt/xchem-fragalysis-2/maxwin/BulkDock/OUTPUTS/RdRp_knitwork_thumb_site_2_impure_split4000_batch000_211013.sdf', '/opt/xchem-fragalysis-2/maxwin/BulkDock/OUTPUTS/RdRp_knitwork_thumb_site_2_impure_fragalysis.sdf']

>  <fragmenstein_mode>  (31) 
['expansion']

>  <scratch_subdir>  (31) 
['/opt/xchem-fragalysis-2/maxwin/BulkDock/SCRATCH/211013/C5616-P50']

>  <ref_pdb>  (31) 
d0615a

>  <ref_mols>  (31) 
d0174a,d0615a

>  <original SMILES>  (31) 
C[C@@H](NS(=O)(=O)CCCCC#N)c1nccs1

>  <alias>  (31) 
None

>  <tags>  (31) 
['Thumb Site 2 merge', 'Knitwork impure merge', 'AC curated INTERESTING', 'Fragmenstein placed', 'acceptable']

>  <fragmenstein_outcome>  (31) 
['acceptable']

>  <csv_name>  (31) 
RdRp_knitwork_thumb_site_2_impure_split4000_batch000.csv

>  <HIPPO Pose ID>  (31) 
51494

>  <SLURM_JOB_NAME>  (31) 
BulkDock.place:Flavi_NS5_RdRp:RdRp_knitwork_thumb_site_2_impure_split4000_batch000

>  <fragmenstein_runtime>  (31) 
[3.2068111896514893]

>  <fragmenstein_error>  (31) 
['']

>  <SLURM_JOB_ID>  (31) 
211013

>  <inchikey>  (31) 
YZHIZPSEYPALKB-SECBINFHSA-N

$$$$
QQPIZLOXKJHKMI-SFYZADRCSA-N
     RDKit          3D

 18 18  0  0  0  0  0  0  0  0999 V2000
  -11.6654  -70.8696  -22.5412 C   0  0  0  0  0  0  0  0  0  0  0  0
  -11.6860  -71.4555  -21.1462 C   0  0  1  0  0  0  0  0  0  0  0  0
  -10.5310  -71.0517  -20.2028 C   0  0  0  0  0  0  0  0  0  0  0  0
   -9.1320  -71.1774  -20.8561 C   0  0  1  0  0  0  0  0  0  0  0  0
   -8.7792  -69.9119  -21.6258 C   0  0  0  0  0  0  0  0  0  0  0  0
   -7.9987  -71.4508  -19.8666 C   0  0  0  0  0  0  0  0  0  0  0  0
   -7.6387  -70.3347  -19.2027 F   0  0  0  0  0  0  0  0  0  0  0  0
   -8.3805  -72.3580  -18.9385 F   0  0  0  0  0  0  0  0  0  0  0  0
  -13.0291  -71.3243  -20.5134 N   0  0  0  0  0  0  0  0  0  0  0  0
  -13.7092  -69.8495  -20.0930 S   0  0  0  0  0  0  0  0  0  0  0  0
  -12.7425  -68.7977  -20.2816 O   0  0  0  0  0  0  0  0  0  0  0  0
  -14.2493  -70.1158  -18.7669 O   0  0  0  0  0  0  0  0  0  0  0  0
  -15.1291  -69.5903  -21.1709 C   0  0  0  0  0  0  0  0  0  0  0  0
  -14.9260  -69.8770  -22.6115 C   0  0  0  0  0  0  0  0  0  0  0  0
  -15.5940  -70.8337  -23.3566 C   0  0  0  0  0  0  0  0  0  0  0  0
  -15.0857  -70.7749  -24.9928 S   0  0  0  0  0  0  0  0  0  0  0  0
  -14.0031  -69.5138  -24.5890 C   0  0  0  0  0  0  0  0  0  0  0  0
  -14.0525  -69.0962  -23.3433 N   0  0  0  0  0  0  0  0  0  0  0  0
  2  1  1  6
  2  3  1  0
  3  4  1  0
  4  5  1  1
  4  6  1  0
  6  7  1  0
  6  8  1  0
  2  9  1  0
  9 10  1  0
 10 11  2  0
 10 12  2  0
 10 13  1  0
 13 14  1  0
 14 15  2  0
 15 16  1  0
 16 17  1  0
 17 18  2  0
 18 14  1  0
M  END
>  <energy_score>  (32) 
-95.967835

>  <name>  (32) 
QQPIZLOXKJHKMI-SFYZADRCSA-N

>  <distance_score>  (32) 
0.987583

>  <original ID>  (32) 
QQPIZLOXKJHKMI-SFYZADRCSA-N

>  <HIPPO Compound ID>  (32) 
5663

>  <exports>  (32) 
['/opt/xchem-fragalysis-2/maxwin/BulkDock/OUTPUTS/RdRp_knitwork_thumb_site_2_impure_split4000_batch000_211013.sdf', '/opt/xchem-fragalysis-2/maxwin/BulkDock/OUTPUTS/RdRp_knitwork_thumb_site_2_impure_fragalysis.sdf']

>  <fragmenstein_mode>  (32) 
['expansion']

>  <scratch_subdir>  (32) 
['/opt/xchem-fragalysis-2/maxwin/BulkDock/SCRATCH/211013/C5663-P50']

>  <ref_pdb>  (32) 
d0615a

>  <ref_mols>  (32) 
d0174a,d0615a

>  <original SMILES>  (32) 
C[C@H](C[C@H](C)NS(=O)(=O)Cc1cscn1)C(F)F

>  <alias>  (32) 
None

>  <tags>  (32) 
['Thumb Site 2 merge', 'Knitwork impure merge', 'AC curated INTERESTING', 'Fragmenstein placed', 'acceptable']

>  <fragmenstein_outcome>  (32) 
['acceptable']

>  <csv_name>  (32) 
RdRp_knitwork_thumb_site_2_impure_split4000_batch000.csv

>  <HIPPO Pose ID>  (32) 
51513

>  <SLURM_JOB_NAME>  (32) 
BulkDock.place:Flavi_NS5_RdRp:RdRp_knitwork_thumb_site_2_impure_split4000_batch000

>  <fragmenstein_runtime>  (32) 
[1.9371957778930664]

>  <fragmenstein_error>  (32) 
['']

>  <SLURM_JOB_ID>  (32) 
211013

>  <inchikey>  (32) 
QQPIZLOXKJHKMI-SFYZADRCSA-N

$$$$
ZTVBGTNBYSEBPC-UHFFFAOYSA-N
     RDKit          3D

 14 14  0  0  0  0  0  0  0  0999 V2000
  -13.8543  -71.4932  -23.5703 C   0  0  0  0  0  0  0  0  0  0  0  0
  -14.5289  -70.1856  -23.1826 C   0  0  0  0  0  0  0  0  0  0  0  0
  -15.0283  -70.1889  -21.7364 C   0  0  0  0  0  0  0  0  0  0  0  0
  -14.0819  -69.5174  -20.7493 C   0  0  0  0  0  0  0  0  0  0  0  0
  -12.9452  -70.3115  -20.2984 N   0  0  0  0  0  0  0  0  0  0  0  0
  -13.2505  -71.1162  -19.1886 O   0  0  0  0  0  0  0  0  0  0  0  0
  -11.6967  -70.2805  -20.8950 C   0  0  0  0  0  0  0  0  0  0  0  0
  -11.5243  -69.7033  -21.9708 O   0  0  0  0  0  0  0  0  0  0  0  0
  -10.5517  -71.0484  -20.2938 C   0  0  0  0  0  0  0  0  0  0  0  0
  -10.4035  -71.1544  -18.9110 C   0  0  0  0  0  0  0  0  0  0  0  0
   -9.2275  -71.6945  -18.3935 C   0  0  0  0  0  0  0  0  0  0  0  0
   -8.2148  -72.0726  -19.2637 C   0  0  0  0  0  0  0  0  0  0  0  0
   -8.4272  -71.9108  -20.6221 C   0  0  0  0  0  0  0  0  0  0  0  0
   -9.5673  -71.4184  -21.1529 N   0  0  0  0  0  0  0  0  0  0  0  0
  1  2  1  0
  2  3  1  0
  3  4  1  0
  4  5  1  0
  5  6  1  0
  5  7  1  0
  7  8  2  0
  7  9  1  0
  9 10  2  0
 10 11  1  0
 11 12  2  0
 12 13  1  0
 13 14  2  0
 14  9  1  0
M  END
>  <energy_score>  (33) 
-25.193297

>  <name>  (33) 
ZTVBGTNBYSEBPC-UHFFFAOYSA-N

>  <distance_score>  (33) 
0.910864

>  <original ID>  (33) 
ZTVBGTNBYSEBPC-UHFFFAOYSA-N

>  <HIPPO Compound ID>  (33) 
6445

>  <exports>  (33) 
['/opt/xchem-fragalysis-2/maxwin/BulkDock/OUTPUTS/RdRp_knitwork_thumb_site_2_impure_split4000_batch000_211013.sdf', '/opt/xchem-fragalysis-2/maxwin/BulkDock/OUTPUTS/RdRp_knitwork_thumb_site_2_impure_fragalysis.sdf']

>  <fragmenstein_mode>  (33) 
['expansion']

>  <scratch_subdir>  (33) 
['/opt/xchem-fragalysis-2/maxwin/BulkDock/SCRATCH/211013/C6445-P17']

>  <ref_pdb>  (33) 
d0174a

>  <ref_mols>  (33) 
d0174a,d0615a

>  <original SMILES>  (33) 
CCCCN(O)C(=O)c1ccccn1

>  <alias>  (33) 
None

>  <tags>  (33) 
['Thumb Site 2 merge', 'Knitwork impure merge', 'AC curated INTERESTING', 'Fragmenstein placed', 'acceptable']

>  <fragmenstein_outcome>  (33) 
['acceptable']

>  <csv_name>  (33) 
RdRp_knitwork_thumb_site_2_impure_split4000_batch000.csv

>  <HIPPO Pose ID>  (33) 
51754

>  <SLURM_JOB_NAME>  (33) 
BulkDock.place:Flavi_NS5_RdRp:RdRp_knitwork_thumb_site_2_impure_split4000_batch000

>  <fragmenstein_runtime>  (33) 
[1.9348533153533936]

>  <fragmenstein_error>  (33) 
['']

>  <SLURM_JOB_ID>  (33) 
211013

>  <inchikey>  (33) 
ZTVBGTNBYSEBPC-UHFFFAOYSA-N

$$$$
FPGLJNIRXQQASH-LBPRGKRZSA-N
     RDKit          3D

 22 22  0  0  0  0  0  0  0  0999 V2000
  -10.0501  -70.6036  -24.6381 C   0  0  0  0  0  0  0  0  0  0  0  0
  -10.1875  -71.2971  -23.2926 C   0  0  0  0  0  0  0  0  0  0  0  0
  -11.1956  -70.5863  -22.3857 C   0  0  0  0  0  0  0  0  0  0  0  0
  -11.5176  -71.3715  -21.1057 C   0  0  2  0  0  0  0  0  0  0  0  0
  -12.9609  -71.3319  -20.7247 N   0  0  0  0  0  0  0  0  0  0  0  0
  -13.7412  -69.9517  -20.2775 S   0  0  0  0  0  0  0  0  0  0  0  0
  -12.9409  -68.7972  -20.5836 O   0  0  0  0  0  0  0  0  0  0  0  0
  -14.1890  -70.2113  -18.9193 O   0  0  0  0  0  0  0  0  0  0  0  0
  -15.2151  -69.9379  -21.2881 C   0  0  0  0  0  0  0  0  0  0  0  0
  -15.1440  -70.0782  -22.8174 C   0  0  0  0  0  0  0  0  0  0  0  0
  -16.5834  -69.8304  -23.3469 C   0  0  0  0  0  0  0  0  0  0  0  0
  -14.2576  -69.0027  -23.4357 C   0  0  0  0  0  0  0  0  0  0  0  0
  -14.8152  -71.4948  -23.2989 C   0  0  0  0  0  0  0  0  0  0  0  0
  -15.6733  -72.3907  -22.7493 F   0  0  0  0  0  0  0  0  0  0  0  0
  -14.9646  -71.5820  -24.6398 F   0  0  0  0  0  0  0  0  0  0  0  0
  -13.5838  -71.9389  -23.0342 F   0  0  0  0  0  0  0  0  0  0  0  0
  -10.4867  -71.1915  -19.9966 C   0  0  0  0  0  0  0  0  0  0  0  0
  -10.7027  -71.7162  -18.7247 C   0  0  0  0  0  0  0  0  0  0  0  0
   -9.6296  -71.8058  -17.8383 C   0  0  0  0  0  0  0  0  0  0  0  0
   -8.3698  -71.3789  -18.2383 C   0  0  0  0  0  0  0  0  0  0  0  0
   -8.2417  -70.8341  -19.4979 C   0  0  0  0  0  0  0  0  0  0  0  0
   -9.2641  -70.7315  -20.3666 N   0  0  0  0  0  0  0  0  0  0  0  0
  1  2  1  0
  2  3  1  0
  4  3  1  6
  4  5  1  0
  5  6  1  0
  6  7  2  0
  6  8  2  0
  6  9  1  0
  9 10  1  0
 10 11  1  0
 10 12  1  0
 10 13  1  0
 13 14  1  0
 13 15  1  0
 13 16  1  0
  4 17  1  0
 17 18  2  0
 18 19  1  0
 19 20  2  0
 20 21  1  0
 21 22  2  0
 22 17  1  0
M  END
>  <energy_score>  (34) 
-34.001152

>  <name>  (34) 
FPGLJNIRXQQASH-LBPRGKRZSA-N

>  <distance_score>  (34) 
0.791691

>  <original ID>  (34) 
FPGLJNIRXQQASH-LBPRGKRZSA-N

>  <HIPPO Compound ID>  (34) 
6489

>  <exports>  (34) 
['/opt/xchem-fragalysis-2/maxwin/BulkDock/OUTPUTS/RdRp_knitwork_thumb_site_2_impure_split4000_batch000_211013.sdf', '/opt/xchem-fragalysis-2/maxwin/BulkDock/OUTPUTS/RdRp_knitwork_thumb_site_2_impure_fragalysis.sdf']

>  <fragmenstein_mode>  (34) 
['expansion']

>  <scratch_subdir>  (34) 
['/opt/xchem-fragalysis-2/maxwin/BulkDock/SCRATCH/211013/C6489-P17']

>  <ref_pdb>  (34) 
d0174a

>  <ref_mols>  (34) 
d0174a,d0615a

>  <original SMILES>  (34) 
CCC[C@H](NS(=O)(=O)CC(C)(C)C(F)(F)F)c1ccccn1

>  <alias>  (34) 
None

>  <tags>  (34) 
['Thumb Site 2 merge', 'Knitwork impure merge', 'AC curated INTERESTING', 'Fragmenstein placed', 'acceptable']

>  <fragmenstein_outcome>  (34) 
['acceptable']

>  <csv_name>  (34) 
RdRp_knitwork_thumb_site_2_impure_split4000_batch000.csv

>  <HIPPO Pose ID>  (34) 
51790

>  <SLURM_JOB_NAME>  (34) 
BulkDock.place:Flavi_NS5_RdRp:RdRp_knitwork_thumb_site_2_impure_split4000_batch000

>  <fragmenstein_runtime>  (34) 
[7.104072332382202]

>  <fragmenstein_error>  (34) 
['']

>  <SLURM_JOB_ID>  (34) 
211013

>  <inchikey>  (34) 
FPGLJNIRXQQASH-LBPRGKRZSA-N

$$$$
FPGLJNIRXQQASH-LBPRGKRZSA-N
     RDKit          3D

 22 22  0  0  0  0  0  0  0  0999 V2000
  -10.0793  -70.6455  -24.7069 C   0  0  0  0  0  0  0  0  0  0  0  0
   -9.9749  -70.8403  -23.2009 C   0  0  0  0  0  0  0  0  0  0  0  0
  -11.3050  -70.5519  -22.5025 C   0  0  0  0  0  0  0  0  0  0  0  0
  -11.5515  -71.3044  -21.1873 C   0  0  2  0  0  0  0  0  0  0  0  0
  -12.9929  -71.2505  -20.8007 N   0  0  0  0  0  0  0  0  0  0  0  0
  -13.7113  -69.8839  -20.2186 S   0  0  0  0  0  0  0  0  0  0  0  0
  -12.8811  -68.7413  -20.4882 O   0  0  0  0  0  0  0  0  0  0  0  0
  -14.1053  -70.2268  -18.8631 O   0  0  0  0  0  0  0  0  0  0  0  0
  -15.2210  -69.7050  -21.1586 C   0  0  0  0  0  0  0  0  0  0  0  0
  -15.3298  -70.2243  -22.6081 C   0  0  0  0  0  0  0  0  0  0  0  0
  -16.8125  -70.0305  -23.0174 C   0  0  0  0  0  0  0  0  0  0  0  0
  -14.5013  -69.3830  -23.5699 C   0  0  0  0  0  0  0  0  0  0  0  0
  -15.0454  -71.7250  -22.7271 C   0  0  0  0  0  0  0  0  0  0  0  0
  -15.8509  -72.3201  -23.6342 F   0  0  0  0  0  0  0  0  0  0  0  0
  -13.7913  -72.0325  -23.0897 F   0  0  0  0  0  0  0  0  0  0  0  0
  -15.2841  -72.3400  -21.5458 F   0  0  0  0  0  0  0  0  0  0  0  0
  -10.5292  -71.1106  -20.0724 C   0  0  0  0  0  0  0  0  0  0  0  0
  -10.7169  -71.7232  -18.8334 C   0  0  0  0  0  0  0  0  0  0  0  0
   -9.6421  -71.8167  -17.9494 C   0  0  0  0  0  0  0  0  0  0  0  0
   -8.4049  -71.3077  -18.3195 C   0  0  0  0  0  0  0  0  0  0  0  0
   -8.3068  -70.6773  -19.5418 C   0  0  0  0  0  0  0  0  0  0  0  0
   -9.3345  -70.5661  -20.4048 N   0  0  0  0  0  0  0  0  0  0  0  0
  1  2  1  0
  2  3  1  0
  4  3  1  6
  4  5  1  0
  5  6  1  0
  6  7  2  0
  6  8  2  0
  6  9  1  0
  9 10  1  0
 10 11  1  0
 10 12  1  0
 10 13  1  0
 13 14  1  0
 13 15  1  0
 13 16  1  0
  4 17  1  0
 17 18  2  0
 18 19  1  0
 19 20  2  0
 20 21  1  0
 21 22  2  0
 22 17  1  0
M  END
>  <energy_score>  (35) 
-29.688772

>  <name>  (35) 
FPGLJNIRXQQASH-LBPRGKRZSA-N

>  <distance_score>  (35) 
0.740754

>  <original ID>  (35) 
FPGLJNIRXQQASH-LBPRGKRZSA-N

>  <HIPPO Compound ID>  (35) 
6489

>  <exports>  (35) 
['/opt/xchem-fragalysis-2/maxwin/BulkDock/OUTPUTS/RdRp_knitwork_thumb_site_2_impure_split4000_batch000_211013.sdf', '/opt/xchem-fragalysis-2/maxwin/BulkDock/OUTPUTS/RdRp_knitwork_thumb_site_2_impure_fragalysis.sdf']

>  <fragmenstein_mode>  (35) 
['expansion']

>  <scratch_subdir>  (35) 
['/opt/xchem-fragalysis-2/maxwin/BulkDock/SCRATCH/211013/C6489-P50']

>  <ref_pdb>  (35) 
d0615a

>  <ref_mols>  (35) 
d0174a,d0615a

>  <original SMILES>  (35) 
CCC[C@H](NS(=O)(=O)CC(C)(C)C(F)(F)F)c1ccccn1

>  <alias>  (35) 
None

>  <tags>  (35) 
['Thumb Site 2 merge', 'Knitwork impure merge', 'AC curated INTERESTING', 'Fragmenstein placed', 'acceptable']

>  <fragmenstein_outcome>  (35) 
['acceptable']

>  <csv_name>  (35) 
RdRp_knitwork_thumb_site_2_impure_split4000_batch000.csv

>  <HIPPO Pose ID>  (35) 
51793

>  <SLURM_JOB_NAME>  (35) 
BulkDock.place:Flavi_NS5_RdRp:RdRp_knitwork_thumb_site_2_impure_split4000_batch000

>  <fragmenstein_runtime>  (35) 
[7.027507066726685]

>  <fragmenstein_error>  (35) 
['']

>  <SLURM_JOB_ID>  (35) 
211013

>  <inchikey>  (35) 
FPGLJNIRXQQASH-LBPRGKRZSA-N

$$$$
XVUBRPZAPHYKMV-JTQLQIEISA-N
     RDKit          3D

 16 16  0  0  0  0  0  0  0  0999 V2000
  -10.2691  -71.0248  -23.6125 C   0  0  0  0  0  0  0  0  0  0  0  0
  -11.0752  -70.4272  -22.4714 C   0  0  0  0  0  0  0  0  0  0  0  0
  -11.2917  -71.4209  -21.3174 C   0  0  2  0  0  0  0  0  0  0  0  0
  -12.7051  -71.4142  -20.9103 N   0  0  0  0  0  0  0  0  0  0  0  0
  -13.4081  -70.1045  -20.1907 S   0  0  0  0  0  0  0  0  0  0  0  0
  -13.7855  -70.5062  -18.8521 O   0  0  0  0  0  0  0  0  0  0  0  0
  -12.6983  -68.8853  -20.4585 O   0  0  0  0  0  0  0  0  0  0  0  0
  -14.8259  -70.0985  -21.0973 N   0  0  0  0  0  0  0  0  0  0  0  0
  -14.6898  -69.7568  -22.5347 C   0  0  0  0  0  0  0  0  0  0  0  0
  -15.8725  -69.3043  -20.4600 C   0  0  0  0  0  0  0  0  0  0  0  0
  -10.2745  -71.3589  -20.1856 C   0  0  0  0  0  0  0  0  0  0  0  0
  -10.5709  -71.8870  -18.9225 C   0  0  0  0  0  0  0  0  0  0  0  0
   -9.5897  -71.8960  -17.9415 C   0  0  0  0  0  0  0  0  0  0  0  0
   -8.3367  -71.4357  -18.1225 N   0  0  0  0  0  0  0  0  0  0  0  0
   -8.0523  -70.9440  -19.3448 C   0  0  0  0  0  0  0  0  0  0  0  0
   -8.9691  -70.8824  -20.3841 C   0  0  0  0  0  0  0  0  0  0  0  0
  1  2  1  0
  3  2  1  6
  3  4  1  0
  4  5  1  0
  5  6  2  0
  5  7  2  0
  5  8  1  0
  8  9  1  0
  8 10  1  0
  3 11  1  0
 11 12  2  0
 12 13  1  0
 13 14  2  0
 14 15  1  0
 15 16  2  0
 16 11  1  0
M  END
>  <energy_score>  (36) 
-27.994881

>  <name>  (36) 
XVUBRPZAPHYKMV-JTQLQIEISA-N

>  <distance_score>  (36) 
0.765163

>  <original ID>  (36) 
XVUBRPZAPHYKMV-JTQLQIEISA-N

>  <HIPPO Compound ID>  (36) 
6527

>  <exports>  (36) 
['/opt/xchem-fragalysis-2/maxwin/BulkDock/OUTPUTS/RdRp_knitwork_thumb_site_2_impure_split4000_batch000_211013.sdf', '/opt/xchem-fragalysis-2/maxwin/BulkDock/OUTPUTS/RdRp_knitwork_thumb_site_2_impure_fragalysis.sdf', '/opt/xchem-fragalysis-2/maxwin/RdRp_FFF/curation/Curated_DF.sdf']

>  <fragmenstein_mode>  (36) 
['expansion']

>  <scratch_subdir>  (36) 
['/opt/xchem-fragalysis-2/maxwin/BulkDock/SCRATCH/211013/C6527-P17']

>  <ref_pdb>  (36) 
d0174a

>  <ref_mols>  (36) 
d0174a,d0615a

>  <original SMILES>  (36) 
CC[C@H](NS(=O)(=O)N(C)C)c1ccncc1

>  <alias>  (36) 
None

>  <tags>  (36) 
['DF curated INTERESTING', 'Thumb Site 2 merge', 'Knitwork impure merge', 'AC curated YES', 'Fragmenstein placed', 'acceptable']

>  <fragmenstein_outcome>  (36) 
['acceptable']

>  <csv_name>  (36) 
RdRp_knitwork_thumb_site_2_impure_split4000_batch000.csv

>  <HIPPO Pose ID>  (36) 
51809

>  <SLURM_JOB_NAME>  (36) 
BulkDock.place:Flavi_NS5_RdRp:RdRp_knitwork_thumb_site_2_impure_split4000_batch000

>  <fragmenstein_runtime>  (36) 
[3.3061165809631348]

>  <fragmenstein_error>  (36) 
['']

>  <SLURM_JOB_ID>  (36) 
211013

>  <inchikey>  (36) 
XVUBRPZAPHYKMV-JTQLQIEISA-N

$$$$
IELXRUKORPMBPJ-VIFPVBQESA-N
     RDKit          3D

 14 14  0  0  0  0  0  0  0  0999 V2000
  -13.4263  -72.1510  -21.3605 C   0  0  0  0  0  0  0  0  0  0  0  0
  -12.9704  -70.9102  -21.1141 C   0  0  0  0  0  0  0  0  0  0  0  0
  -13.8870  -69.8733  -20.5843 C   0  0  0  0  0  0  0  0  0  0  0  0
  -13.6501  -69.2723  -19.5467 O   0  0  0  0  0  0  0  0  0  0  0  0
  -15.0192  -69.6865  -21.3054 O   0  0  0  0  0  0  0  0  0  0  0  0
  -14.8832  -69.5272  -22.7248 C   0  0  0  0  0  0  0  0  0  0  0  0
  -11.5800  -70.4158  -21.3777 C   0  0  2  0  0  0  0  0  0  0  0  0
  -11.2052  -70.7889  -22.7068 O   0  0  0  0  0  0  0  0  0  0  0  0
  -10.4883  -70.8341  -20.4110 C   0  0  0  0  0  0  0  0  0  0  0  0
  -10.7492  -71.2318  -19.0949 C   0  0  0  0  0  0  0  0  0  0  0  0
   -9.6848  -71.5382  -18.2576 C   0  0  0  0  0  0  0  0  0  0  0  0
   -8.3888  -71.4590  -18.6207 N   0  0  0  0  0  0  0  0  0  0  0  0
   -8.1460  -71.0587  -19.8864 C   0  0  0  0  0  0  0  0  0  0  0  0
   -9.1419  -70.7377  -20.7970 C   0  0  0  0  0  0  0  0  0  0  0  0
  1  2  2  0
  2  3  1  0
  3  4  2  0
  3  5  1  0
  5  6  1  0
  2  7  1  0
  7  8  1  6
  7  9  1  0
  9 10  2  0
 10 11  1  0
 11 12  2  0
 12 13  1  0
 13 14  2  0
 14  9  1  0
M  END
>  <energy_score>  (37) 
-20.67527

>  <name>  (37) 
IELXRUKORPMBPJ-VIFPVBQESA-N

>  <distance_score>  (37) 
0.561027

>  <original ID>  (37) 
IELXRUKORPMBPJ-VIFPVBQESA-N

>  <HIPPO Compound ID>  (37) 
6748

>  <exports>  (37) 
['/opt/xchem-fragalysis-2/maxwin/BulkDock/OUTPUTS/RdRp_knitwork_thumb_site_2_impure_split4000_batch000_211013.sdf', '/opt/xchem-fragalysis-2/maxwin/BulkDock/OUTPUTS/RdRp_knitwork_thumb_site_2_impure_fragalysis.sdf']

>  <fragmenstein_mode>  (37) 
['expansion']

>  <scratch_subdir>  (37) 
['/opt/xchem-fragalysis-2/maxwin/BulkDock/SCRATCH/211013/C6748-P50']

>  <ref_pdb>  (37) 
d0615a

>  <ref_mols>  (37) 
d0174a,d0615a

>  <original SMILES>  (37) 
C=C(C(=O)OC)[C@H](O)c1ccncc1

>  <alias>  (37) 
None

>  <tags>  (37) 
['Thumb Site 2 merge', 'Knitwork impure merge', 'AC curated INTERESTING', 'Fragmenstein placed', 'acceptable']

>  <fragmenstein_outcome>  (37) 
['acceptable']

>  <csv_name>  (37) 
RdRp_knitwork_thumb_site_2_impure_split4000_batch000.csv

>  <HIPPO Pose ID>  (37) 
51908

>  <SLURM_JOB_NAME>  (37) 
BulkDock.place:Flavi_NS5_RdRp:RdRp_knitwork_thumb_site_2_impure_split4000_batch000

>  <fragmenstein_runtime>  (37) 
[1.5419557094573975]

>  <fragmenstein_error>  (37) 
['']

>  <SLURM_JOB_ID>  (37) 
211013

>  <inchikey>  (37) 
IELXRUKORPMBPJ-VIFPVBQESA-N

$$$$
CYKGEVWQGIWROI-SECBINFHSA-N
     RDKit          3D

 23 24  0  0  0  0  0  0  0  0999 V2000
  -19.4389  -46.1801  -18.1258 C   0  0  0  0  0  0  0  0  0  0  0  0
  -18.3170  -45.5926  -18.9699 C   0  0  2  0  0  0  0  0  0  0  0  0
  -18.3142  -46.1209  -20.4111 C   0  0  0  0  0  0  0  0  0  0  0  0
  -17.4038  -45.3156  -21.2075 N   0  0  0  0  0  0  0  0  0  0  0  0
  -17.8185  -44.7677  -22.6470 C   0  0  0  0  0  0  0  0  0  0  0  0
  -18.8736  -44.1148  -22.5655 O   0  0  0  0  0  0  0  0  0  0  0  0
  -16.4250  -44.0758  -22.4803 N   0  0  0  0  0  0  0  0  0  0  0  0
  -15.9413  -43.1799  -23.3946 C   0  0  0  0  0  0  0  0  0  0  0  0
  -14.8603  -42.4929  -23.1131 N   0  0  0  0  0  0  0  0  0  0  0  0
  -14.7133  -41.4900  -24.0400 C   0  0  0  0  0  0  0  0  0  0  0  0
  -15.6679  -41.4512  -25.0309 C   0  0  0  0  0  0  0  0  0  0  0  0
  -15.8822  -40.3959  -26.0617 C   0  0  0  0  0  0  0  0  0  0  0  0
  -16.4323  -39.0636  -25.4740 C   0  0  0  0  0  0  0  0  0  0  0  0
  -17.1883  -39.1828  -24.1333 C   0  0  0  0  0  0  0  0  0  0  0  0
  -17.9579  -37.9236  -23.7635 C   0  0  0  0  0  0  0  0  0  0  0  0
  -18.8455  -37.5922  -24.8204 O   0  0  0  0  0  0  0  0  0  0  0  0
  -18.1149  -37.2223  -25.9730 C   0  0  0  0  0  0  0  0  0  0  0  0
  -17.3003  -38.3744  -26.5334 C   0  0  0  0  0  0  0  0  0  0  0  0
  -16.7211  -42.8048  -24.8536 S   0  0  0  0  0  0  0  0  0  0  0  0
  -16.7202  -45.8962  -18.1600 S   0  0  0  0  0  0  0  0  0  0  0  0
  -15.6022  -45.2378  -19.2490 N   0  0  0  0  0  0  0  0  0  0  0  0
  -16.3960  -47.3022  -18.1350 O   0  0  0  0  0  0  0  0  0  0  0  0
  -16.5687  -45.0710  -16.9815 O   0  0  0  0  0  0  0  0  0  0  0  0
  2  1  1  1
  2  3  1  0
  3  4  1  0
  4  5  1  0
  5  6  2  0
  5  7  1  0
  7  8  1  0
  8  9  2  0
  9 10  1  0
 10 11  2  0
 11 12  1  0
 12 13  1  0
 13 14  1  0
 14 15  1  0
 15 16  1  0
 16 17  1  0
 17 18  1  0
 11 19  1  0
  2 20  1  0
 20 21  1  0
 20 22  2  0
 20 23  2  0
 19  8  1  0
 18 13  1  0
M  END
>  <energy_score>  (38) 
-23.136585

>  <name>  (38) 
CYKGEVWQGIWROI-SECBINFHSA-N

>  <distance_score>  (38) 
0.901757

>  <original ID>  (38) 
CYKGEVWQGIWROI-SECBINFHSA-N

>  <HIPPO Compound ID>  (38) 
23751

>  <exports>  (38) 
nan

>  <fragmenstein_mode>  (38) 
expansion

>  <scratch_subdir>  (38) 
/opt/xchem-fragalysis-2/maxwin/BulkDock/SCRATCH/220451/C51947-P206

>  <ref_pdb>  (38) 
d0254a

>  <ref_mols>  (38) 
d0254a,d0615b

>  <original SMILES>  (38) 
C[C@H](CNC(=O)Nc1ncc(CC2CCOCC2)s1)S(N)(=O)=O

>  <alias>  (38) 
None

>  <tags>  (38) 
['AC curated INTERESTING', 'Knitwork impure merge', 'Fragmenstein placed', 'Green Site/RNA tunnel merge']

>  <fragmenstein_outcome>  (38) 
too moved

>  <csv_name>  (38) 
RdRp_knitwork_green_site_rna_tunnel_impure_split4000_batch000.csv

>  <HIPPO Pose ID>  (38) 
51947

>  <SLURM_JOB_NAME>  (38) 
BulkDock.place:Flavi_NS5_RdRp:RdRp_knitwork_green_site_rna_tunnel_impure_split4000_batch000

>  <fragmenstein_runtime>  (38) 
18.362092

>  <fragmenstein_error>  (38) 
None

>  <SLURM_JOB_ID>  (38) 
220451

>  <inchikey>  (38) 
CYKGEVWQGIWROI-SECBINFHSA-N

$$$$
SSUIBPIVLLKLDS-JTQLQIEISA-N
     RDKit          3D

 13 13  0  0  0  0  0  0  0  0999 V2000
  -15.8959  -70.0541  -23.7584 C   0  0  0  0  0  0  0  0  0  0  0  0
  -14.7163  -69.7756  -22.8409 C   0  0  0  0  0  0  0  0  0  0  0  0
  -15.0841  -70.0480  -21.3859 C   0  0  0  0  0  0  0  0  0  0  0  0
  -13.9857  -69.8527  -20.4978 O   0  0  0  0  0  0  0  0  0  0  0  0
  -13.0068  -70.9076  -20.5210 C   0  0  0  0  0  0  0  0  0  0  0  0
  -11.6177  -70.3014  -20.8087 C   0  0  2  0  0  0  0  0  0  0  0  0
  -11.4387  -70.1888  -22.2274 O   0  0  0  0  0  0  0  0  0  0  0  0
  -10.3978  -70.9562  -20.2049 C   0  0  0  0  0  0  0  0  0  0  0  0
  -10.4265  -72.0189  -19.2987 C   0  0  0  0  0  0  0  0  0  0  0  0
   -9.2406  -72.4855  -18.7319 C   0  0  0  0  0  0  0  0  0  0  0  0
   -8.0503  -71.8814  -19.0944 C   0  0  0  0  0  0  0  0  0  0  0  0
   -7.9737  -70.8589  -19.9657 N   0  0  0  0  0  0  0  0  0  0  0  0
   -9.1389  -70.4225  -20.4972 C   0  0  0  0  0  0  0  0  0  0  0  0
  1  2  1  0
  2  3  1  0
  3  4  1  0
  4  5  1  0
  5  6  1  0
  6  7  1  6
  6  8  1  0
  8  9  2  0
  9 10  1  0
 10 11  2  0
 11 12  1  0
 12 13  2  0
 13  8  1  0
M  END
>  <energy_score>  (39) 
-10.955179

>  <name>  (39) 
SSUIBPIVLLKLDS-JTQLQIEISA-N

>  <distance_score>  (39) 
0.696576

>  <original ID>  (39) 
SSUIBPIVLLKLDS-JTQLQIEISA-N

>  <HIPPO Compound ID>  (39) 
6935

>  <exports>  (39) 
['/opt/xchem-fragalysis-2/maxwin/BulkDock/OUTPUTS/RdRp_knitwork_thumb_site_2_impure_split4000_batch000_211013.sdf', '/opt/xchem-fragalysis-2/maxwin/BulkDock/OUTPUTS/RdRp_knitwork_thumb_site_2_impure_fragalysis.sdf']

>  <fragmenstein_mode>  (39) 
['expansion']

>  <scratch_subdir>  (39) 
['/opt/xchem-fragalysis-2/maxwin/BulkDock/SCRATCH/211013/C6935-P50']

>  <ref_pdb>  (39) 
d0615a

>  <ref_mols>  (39) 
d0174a,d0615a

>  <original SMILES>  (39) 
CCCOC[C@H](O)c1cccnc1

>  <alias>  (39) 
None

>  <tags>  (39) 
['Thumb Site 2 merge', 'Knitwork impure merge', 'AC curated INTERESTING', 'Fragmenstein placed', 'acceptable']

>  <fragmenstein_outcome>  (39) 
['acceptable']

>  <csv_name>  (39) 
RdRp_knitwork_thumb_site_2_impure_split4000_batch000.csv

>  <HIPPO Pose ID>  (39) 
51973

>  <SLURM_JOB_NAME>  (39) 
BulkDock.place:Flavi_NS5_RdRp:RdRp_knitwork_thumb_site_2_impure_split4000_batch000

>  <fragmenstein_runtime>  (39) 
[1.6935410499572754]

>  <fragmenstein_error>  (39) 
['']

>  <SLURM_JOB_ID>  (39) 
211013

>  <inchikey>  (39) 
SSUIBPIVLLKLDS-JTQLQIEISA-N

$$$$
JOUKTDMORMFDAW-SNVBAGLBSA-N
     RDKit          3D

 14 14  0  0  0  0  0  0  0  0999 V2000
  -14.2018  -69.3023  -22.9955 C   0  0  0  0  0  0  0  0  0  0  0  0
  -14.6509  -69.4670  -21.5399 C   0  0  0  0  0  0  0  0  0  0  0  0
  -15.0213  -68.0933  -20.9773 C   0  0  0  0  0  0  0  0  0  0  0  0
  -15.9049  -70.3388  -21.4671 C   0  0  0  0  0  0  0  0  0  0  0  0
  -13.6070  -69.9715  -20.6778 O   0  0  0  0  0  0  0  0  0  0  0  0
  -13.0534  -71.2434  -21.0368 C   0  0  0  0  0  0  0  0  0  0  0  0
  -11.5641  -71.2148  -21.4401 C   0  0  1  0  0  0  0  0  0  0  0  0
  -11.3174  -70.2258  -22.4514 O   0  0  0  0  0  0  0  0  0  0  0  0
  -10.4916  -71.1181  -20.3686 C   0  0  0  0  0  0  0  0  0  0  0  0
  -10.6209  -71.6908  -19.1072 C   0  0  0  0  0  0  0  0  0  0  0  0
   -9.5080  -71.7303  -18.2669 C   0  0  0  0  0  0  0  0  0  0  0  0
   -8.2958  -71.2113  -18.7055 C   0  0  0  0  0  0  0  0  0  0  0  0
   -8.2470  -70.6453  -19.9658 C   0  0  0  0  0  0  0  0  0  0  0  0
   -9.3093  -70.5840  -20.7964 N   0  0  0  0  0  0  0  0  0  0  0  0
  1  2  1  0
  2  3  1  0
  2  4  1  0
  2  5  1  0
  5  6  1  0
  6  7  1  0
  7  8  1  6
  7  9  1  0
  9 10  2  0
 10 11  1  0
 11 12  2  0
 12 13  1  0
 13 14  2  0
 14  9  1  0
M  END
>  <energy_score>  (40) 
-27.100289

>  <name>  (40) 
JOUKTDMORMFDAW-SNVBAGLBSA-N

>  <distance_score>  (40) 
0.589841

>  <original ID>  (40) 
JOUKTDMORMFDAW-SNVBAGLBSA-N

>  <HIPPO Compound ID>  (40) 
6945

>  <exports>  (40) 
nan

>  <fragmenstein_mode>  (40) 
expansion

>  <scratch_subdir>  (40) 
/opt/xchem-fragalysis-2/maxwin/BulkDock/SCRATCH/217078/C51975-P136

>  <ref_pdb>  (40) 
d0615a

>  <ref_mols>  (40) 
d0174a,d0615a

>  <original SMILES>  (40) 
CC(C)(C)OC[C@@H](O)c1ccccn1

>  <alias>  (40) 
None

>  <tags>  (40) 
['AC curated INTERESTING', 'Knitwork pure merge', 'Fragmenstein placed', 'Green Site/RNA tunnel merge']

>  <fragmenstein_outcome>  (40) 
too moved

>  <csv_name>  (40) 
RdRp_knitwork_green_site_rna_tunnel_pure_split4000_batch007.csv

>  <HIPPO Pose ID>  (40) 
51975

>  <SLURM_JOB_NAME>  (40) 
BulkDock.place:Flavi_NS5_RdRp:RdRp_knitwork_green_site_rna_tunnel_pure_split4000_batch007

>  <fragmenstein_runtime>  (40) 
12.630479

>  <fragmenstein_error>  (40) 
None

>  <SLURM_JOB_ID>  (40) 
217078

>  <inchikey>  (40) 
JOUKTDMORMFDAW-SNVBAGLBSA-N

$$$$
KGPMAROHLPCGEI-SNVBAGLBSA-N
     RDKit          3D

 21 21  0  0  0  0  0  0  0  0999 V2000
  -10.1222  -71.1526  -23.6117 C   0  0  0  0  0  0  0  0  0  0  0  0
  -11.3929  -71.4030  -22.8167 C   0  0  0  0  0  0  0  0  0  0  0  0
  -11.4708  -70.6477  -21.4846 C   0  0  1  0  0  0  0  0  0  0  0  0
  -12.8132  -70.8897  -20.9099 N   0  0  0  0  0  0  0  0  0  0  0  0
  -13.6044  -69.6298  -20.1816 S   0  0  0  0  0  0  0  0  0  0  0  0
  -12.6067  -68.7792  -19.5863 O   0  0  0  0  0  0  0  0  0  0  0  0
  -14.6667  -70.1986  -19.3818 O   0  0  0  0  0  0  0  0  0  0  0  0
  -14.3139  -68.7121  -21.5249 C   0  0  0  0  0  0  0  0  0  0  0  0
  -15.5650  -69.2896  -22.1352 C   0  0  0  0  0  0  0  0  0  0  0  0
  -15.2964  -70.3757  -23.1498 C   0  0  0  0  0  0  0  0  0  0  0  0
  -14.3132  -69.9682  -23.9904 F   0  0  0  0  0  0  0  0  0  0  0  0
  -14.8276  -71.4821  -22.5122 F   0  0  0  0  0  0  0  0  0  0  0  0
  -16.5590  -70.7074  -23.9352 C   0  0  0  0  0  0  0  0  0  0  0  0
  -17.0924  -69.5903  -24.5032 F   0  0  0  0  0  0  0  0  0  0  0  0
  -16.2717  -71.5604  -24.9491 F   0  0  0  0  0  0  0  0  0  0  0  0
  -10.3619  -71.0236  -20.5236 C   0  0  0  0  0  0  0  0  0  0  0  0
  -10.5022  -72.0205  -19.5518 C   0  0  0  0  0  0  0  0  0  0  0  0
   -9.4355  -72.3331  -18.7118 C   0  0  0  0  0  0  0  0  0  0  0  0
   -8.2461  -71.6462  -18.8767 C   0  0  0  0  0  0  0  0  0  0  0  0
   -8.0657  -70.6759  -19.7942 N   0  0  0  0  0  0  0  0  0  0  0  0
   -9.1246  -70.3817  -20.5846 C   0  0  0  0  0  0  0  0  0  0  0  0
  1  2  1  0
  3  2  1  6
  3  4  1  0
  4  5  1  0
  5  6  2  0
  5  7  2  0
  5  8  1  0
  8  9  1  0
  9 10  1  0
 10 11  1  0
 10 12  1  0
 10 13  1  0
 13 14  1  0
 13 15  1  0
  3 16  1  0
 16 17  2  0
 17 18  1  0
 18 19  2  0
 19 20  1  0
 20 21  2  0
 21 16  1  0
M  END
>  <energy_score>  (41) 
-66.53151

>  <name>  (41) 
KGPMAROHLPCGEI-SNVBAGLBSA-N

>  <distance_score>  (41) 
0.923923

>  <original ID>  (41) 
KGPMAROHLPCGEI-SNVBAGLBSA-N

>  <HIPPO Compound ID>  (41) 
6950

>  <exports>  (41) 
['/opt/xchem-fragalysis-2/maxwin/BulkDock/OUTPUTS/RdRp_knitwork_thumb_site_2_impure_split4000_batch000_211013.sdf', '/opt/xchem-fragalysis-2/maxwin/BulkDock/OUTPUTS/RdRp_knitwork_thumb_site_2_impure_fragalysis.sdf', '/opt/xchem-fragalysis-2/maxwin/RdRp_FFF/curation/Curated_DF.sdf']

>  <fragmenstein_mode>  (41) 
['expansion']

>  <scratch_subdir>  (41) 
['/opt/xchem-fragalysis-2/maxwin/BulkDock/SCRATCH/211013/C6950-P50']

>  <ref_pdb>  (41) 
d0615a

>  <ref_mols>  (41) 
d0174a,d0615a

>  <original SMILES>  (41) 
CC[C@@H](NS(=O)(=O)CCC(F)(F)C(F)F)c1cccnc1

>  <alias>  (41) 
None

>  <tags>  (41) 
['DF curated INTERESTING', 'Thumb Site 2 merge', 'Knitwork impure merge', 'AC curated YES', 'Fragmenstein placed', 'acceptable']

>  <fragmenstein_outcome>  (41) 
['acceptable']

>  <csv_name>  (41) 
RdRp_knitwork_thumb_site_2_impure_split4000_batch000.csv

>  <HIPPO Pose ID>  (41) 
51980

>  <SLURM_JOB_NAME>  (41) 
BulkDock.place:Flavi_NS5_RdRp:RdRp_knitwork_thumb_site_2_impure_split4000_batch000

>  <fragmenstein_runtime>  (41) 
[3.2299387454986572]

>  <fragmenstein_error>  (41) 
['']

>  <SLURM_JOB_ID>  (41) 
211013

>  <inchikey>  (41) 
KGPMAROHLPCGEI-SNVBAGLBSA-N

$$$$
VBOACUTYNJLSJJ-UHFFFAOYSA-N
     RDKit          3D

 13 14  0  0  0  0  0  0  0  0999 V2000
  -15.0131  -41.5018  -24.1644 C   0  0  0  0  0  0  0  0  0  0  0  0
  -14.8122  -41.2289  -22.8211 C   0  0  0  0  0  0  0  0  0  0  0  0
  -15.3379  -42.0961  -21.8654 C   0  0  0  0  0  0  0  0  0  0  0  0
  -16.0814  -43.2095  -22.2644 C   0  0  0  0  0  0  0  0  0  0  0  0
  -16.6844  -44.0142  -21.2828 N   0  0  0  0  0  0  0  0  0  0  0  0
  -17.8357  -44.7796  -21.7640 C   0  0  0  0  0  0  0  0  0  0  0  0
  -18.3427  -45.8183  -20.7678 C   0  0  0  0  0  0  0  0  0  0  0  0
  -18.4838  -45.2970  -19.3520 C   0  0  0  0  0  0  0  0  0  0  0  0
  -17.2894  -45.5262  -18.6129 O   0  0  0  0  0  0  0  0  0  0  0  0
  -16.2278  -44.6265  -18.9321 C   0  0  0  0  0  0  0  0  0  0  0  0
  -15.7355  -44.7044  -20.3879 C   0  0  0  0  0  0  0  0  0  0  0  0
  -16.2978  -43.4555  -23.5740 N   0  0  0  0  0  0  0  0  0  0  0  0
  -15.7409  -42.6286  -24.4876 C   0  0  0  0  0  0  0  0  0  0  0  0
  1  2  2  0
  2  3  1  0
  3  4  2  0
  4  5  1  0
  5  6  1  0
  6  7  1  0
  7  8  1  0
  8  9  1  0
  9 10  1  0
 10 11  1  0
  4 12  1  0
 12 13  2  0
 13  1  1  0
 11  5  1  0
M  END
>  <energy_score>  (42) 
-18.649234

>  <name>  (42) 
VBOACUTYNJLSJJ-UHFFFAOYSA-N

>  <distance_score>  (42) 
0.956436

>  <original ID>  (42) 
VBOACUTYNJLSJJ-UHFFFAOYSA-N

>  <HIPPO Compound ID>  (42) 
14654

>  <exports>  (42) 
['/opt/xchem-fragalysis-2/maxwin/RdRp_FFF/curation/Curated_DF.sdf']

>  <fragmenstein_mode>  (42) 
expansion

>  <scratch_subdir>  (42) 
/opt/xchem-fragalysis-2/maxwin/BulkDock/SCRATCH/220460/C52068-P173

>  <ref_pdb>  (42) 
d0615b

>  <ref_mols>  (42) 
d0254a,d0615b

>  <original SMILES>  (42) 
c1ccc(N2CCCOCC2)nc1

>  <alias>  (42) 
None

>  <tags>  (42) 
['DF curated INTERESTING', 'Knitwork impure merge', 'AC curated INTERESTING', 'Fragmenstein placed', 'Green Site/RNA tunnel merge']

>  <fragmenstein_outcome>  (42) 
too moved

>  <csv_name>  (42) 
RdRp_knitwork_green_site_rna_tunnel_impure_split4000_batch009.csv

>  <HIPPO Pose ID>  (42) 
52068

>  <SLURM_JOB_NAME>  (42) 
BulkDock.place:Flavi_NS5_RdRp:RdRp_knitwork_green_site_rna_tunnel_impure_split4000_batch009

>  <fragmenstein_runtime>  (42) 
2.385245

>  <fragmenstein_error>  (42) 
None

>  <SLURM_JOB_ID>  (42) 
220460

>  <inchikey>  (42) 
VBOACUTYNJLSJJ-UHFFFAOYSA-N

$$$$
NICHNLZHGMPFGC-CHWSQXEVSA-N
     RDKit          3D

 21 22  0  0  0  0  0  0  0  0999 V2000
  -18.0966  -45.5413  -18.2621 C   0  0  0  0  0  0  0  0  0  0  0  0
  -19.3353  -45.5939  -19.5772 S   0  0  0  0  0  0  0  0  0  0  0  0
  -18.2303  -45.9801  -20.9757 C   0  0  0  0  0  0  0  0  0  0  0  0
  -17.9454  -44.6856  -21.7478 C   0  0  2  0  0  0  0  0  0  0  0  0
  -18.7927  -44.5936  -23.0195 C   0  0  0  0  0  0  0  0  0  0  0  0
  -16.4661  -44.6058  -22.1021 C   0  0  0  0  0  0  0  0  0  0  0  0
  -16.0741  -43.2188  -22.2720 N   0  0  0  0  0  0  0  0  0  0  0  0
  -14.8781  -43.0370  -23.0803 C   0  0  2  0  0  0  0  0  0  0  0  0
  -13.7498  -43.9640  -22.6708 C   0  0  0  0  0  0  0  0  0  0  0  0
  -14.5444  -41.5829  -22.9804 C   0  0  0  0  0  0  0  0  0  0  0  0
  -13.9008  -40.9092  -21.9584 C   0  0  0  0  0  0  0  0  0  0  0  0
  -13.8370  -39.6074  -22.3370 N   0  0  0  0  0  0  0  0  0  0  0  0
  -13.2462  -38.5173  -21.6012 C   0  0  0  0  0  0  0  0  0  0  0  0
  -14.4020  -39.3678  -23.5291 N   0  0  0  0  0  0  0  0  0  0  0  0
  -14.8620  -40.5646  -23.9278 C   0  0  0  0  0  0  0  0  0  0  0  0
  -15.5711  -40.7474  -25.2491 C   0  0  0  0  0  0  0  0  0  0  0  0
  -15.7310  -39.4527  -26.0407 C   0  0  0  0  0  0  0  0  0  0  0  0
  -16.4943  -39.6856  -27.3322 C   0  0  0  0  0  0  0  0  0  0  0  0
  -17.7511  -40.3312  -27.1285 O   0  0  0  0  0  0  0  0  0  0  0  0
  -17.5974  -41.5803  -26.4729 C   0  0  0  0  0  0  0  0  0  0  0  0
  -16.9570  -41.3959  -25.1123 C   0  0  0  0  0  0  0  0  0  0  0  0
  1  2  1  0
  2  3  1  0
  3  4  1  0
  4  5  1  6
  4  6  1  0
  6  7  1  0
  7  8  1  0
  8  9  1  1
  8 10  1  0
 10 11  2  0
 11 12  1  0
 12 13  1  0
 12 14  1  0
 14 15  2  0
 15 16  1  0
 16 17  1  0
 17 18  1  0
 18 19  1  0
 19 20  1  0
 20 21  1  0
 15 10  1  0
 21 16  1  0
M  END
>  <energy_score>  (43) 
-64.459035

>  <name>  (43) 
NICHNLZHGMPFGC-CHWSQXEVSA-N

>  <distance_score>  (43) 
0.727262

>  <original ID>  (43) 
NICHNLZHGMPFGC-CHWSQXEVSA-N

>  <HIPPO Compound ID>  (43) 
24397

>  <exports>  (43) 
['/opt/xchem-fragalysis-2/maxwin/BulkDock/OUTPUTS/RdRp_knitwork_primer_grip_n_pocket_impure_split4000_batch005_211037.sdf', '/opt/xchem-fragalysis-2/maxwin/BulkDock/OUTPUTS/RdRp_knitwork_primer_grip_n_pocket_impure_fragalysis.sdf']

>  <fragmenstein_mode>  (43) 
['expansion']

>  <scratch_subdir>  (43) 
['/opt/xchem-fragalysis-2/maxwin/BulkDock/SCRATCH/211037/C24397-P12']

>  <ref_pdb>  (43) 
d0160a

>  <ref_mols>  (43) 
d0160a,d0254a

>  <original SMILES>  (43) 
CSC[C@H](C)CN[C@H](C)c1cn(C)nc1C1CCOCC1

>  <alias>  (43) 
None

>  <tags>  (43) 
['Primer grip/N-pocket merge', 'Knitwork impure merge', 'AC curated INTERESTING', 'Fragmenstein placed', 'acceptable']

>  <fragmenstein_outcome>  (43) 
['acceptable']

>  <csv_name>  (43) 
RdRp_knitwork_primer_grip_n_pocket_impure_split4000_batch005.csv

>  <HIPPO Pose ID>  (43) 
52600

>  <SLURM_JOB_NAME>  (43) 
BulkDock.place:Flavi_NS5_RdRp:RdRp_knitwork_primer_grip_n_pocket_impure_split4000_batch005

>  <fragmenstein_runtime>  (43) 
[104.23955249786377]

>  <fragmenstein_error>  (43) 
['']

>  <SLURM_JOB_ID>  (43) 
211037

>  <inchikey>  (43) 
NICHNLZHGMPFGC-CHWSQXEVSA-N

$$$$
JFXCVJGKTUWCDE-UHFFFAOYSA-N
     RDKit          3D

 22 24  0  0  0  0  0  0  0  0999 V2000
  -13.1258  -71.2734  -24.9834 C   0  0  0  0  0  0  0  0  0  0  0  0
  -14.3124  -70.3813  -25.3219 C   0  0  0  0  0  0  0  0  0  0  0  0
  -15.4380  -70.3738  -24.2747 C   0  0  0  0  0  0  0  0  0  0  0  0
  -14.9497  -69.9803  -22.9223 C   0  0  0  0  0  0  0  0  0  0  0  0
  -14.5036  -68.7974  -22.5521 N   0  0  0  0  0  0  0  0  0  0  0  0
  -13.7594  -68.8716  -21.3799 N   0  0  0  0  0  0  0  0  0  0  0  0
  -13.6918  -70.1107  -20.9690 C   0  0  0  0  0  0  0  0  0  0  0  0
  -12.6323  -70.6161  -20.1078 N   0  0  0  0  0  0  0  0  0  0  0  0
  -11.3968  -71.1395  -21.1725 S   0  0  0  0  0  0  0  0  0  0  0  0
  -11.1560  -70.1500  -22.1963 O   0  0  0  0  0  0  0  0  0  0  0  0
  -11.7177  -72.5149  -21.4933 O   0  0  0  0  0  0  0  0  0  0  0  0
   -9.9726  -71.1907  -20.1395 C   0  0  0  0  0  0  0  0  0  0  0  0
  -10.0217  -71.8703  -18.9176 C   0  0  0  0  0  0  0  0  0  0  0  0
   -8.8518  -72.0170  -18.1749 C   0  0  0  0  0  0  0  0  0  0  0  0
   -7.6507  -71.5090  -18.6691 C   0  0  0  0  0  0  0  0  0  0  0  0
   -7.6162  -70.8483  -19.9006 C   0  0  0  0  0  0  0  0  0  0  0  0
   -8.7808  -70.6542  -20.6261 C   0  0  0  0  0  0  0  0  0  0  0  0
   -6.4614  -70.3792  -20.4634 O   0  0  0  0  0  0  0  0  0  0  0  0
   -5.3166  -71.0290  -19.9050 C   0  0  0  0  0  0  0  0  0  0  0  0
   -5.4008  -70.9806  -18.3939 C   0  0  0  0  0  0  0  0  0  0  0  0
   -6.5321  -71.7196  -17.9072 O   0  0  0  0  0  0  0  0  0  0  0  0
  -14.8334  -71.1588  -21.6816 S   0  0  0  0  0  0  0  0  0  0  0  0
  1  2  1  0
  2  3  1  0
  3  4  1  0
  4  5  2  0
  5  6  1  0
  6  7  2  0
  7  8  1  0
  8  9  1  0
  9 10  2  0
  9 11  2  0
  9 12  1  0
 12 13  2  0
 13 14  1  0
 14 15  2  0
 15 16  1  0
 16 17  2  0
 16 18  1  0
 18 19  1  0
 19 20  1  0
 20 21  1  0
  7 22  1  0
 22  4  1  0
 17 12  1  0
 21 15  1  0
M  END
>  <energy_score>  (44) 
-57.934636

>  <name>  (44) 
JFXCVJGKTUWCDE-UHFFFAOYSA-N

>  <distance_score>  (44) 
0.924482

>  <original ID>  (44) 
JFXCVJGKTUWCDE-UHFFFAOYSA-N

>  <HIPPO Compound ID>  (44) 
4670

>  <exports>  (44) 
['/opt/xchem-fragalysis-2/maxwin/BulkDock/OUTPUTS/RdRp_knitwork_thumb_site_2_impure_split4000_batch000_211013.sdf', '/opt/xchem-fragalysis-2/maxwin/BulkDock/OUTPUTS/RdRp_knitwork_thumb_site_2_impure_fragalysis.sdf']

>  <fragmenstein_mode>  (44) 
['expansion']

>  <scratch_subdir>  (44) 
['/opt/xchem-fragalysis-2/maxwin/BulkDock/SCRATCH/211013/C4670-P33']

>  <ref_pdb>  (44) 
d0376a

>  <ref_mols>  (44) 
d0174a,d0376a

>  <original SMILES>  (44) 
CCCc1nnc(NS(=O)(=O)c2ccc3c(c2)OCCO3)s1

>  <alias>  (44) 
None

>  <tags>  (44) 
['Thumb Site 2 merge', 'Knitwork impure merge', 'AC curated INTERESTING', 'Fragmenstein placed', 'acceptable']

>  <fragmenstein_outcome>  (44) 
['acceptable']

>  <csv_name>  (44) 
RdRp_knitwork_thumb_site_2_impure_split4000_batch000.csv

>  <HIPPO Pose ID>  (44) 
54796

>  <SLURM_JOB_NAME>  (44) 
BulkDock.place:Flavi_NS5_RdRp:RdRp_knitwork_thumb_site_2_impure_split4000_batch000

>  <fragmenstein_runtime>  (44) 
[3.524533271789551]

>  <fragmenstein_error>  (44) 
['']

>  <SLURM_JOB_ID>  (44) 
211013

>  <inchikey>  (44) 
JFXCVJGKTUWCDE-UHFFFAOYSA-N

$$$$
UGEFVIWPBQPAJW-UHFFFAOYSA-N
     RDKit          3D

 21 23  0  0  0  0  0  0  0  0999 V2000
  -17.9324  -69.1631  -26.3291 C   0  0  0  0  0  0  0  0  0  0  0  0
  -16.8273  -70.0953  -25.8644 C   0  0  0  0  0  0  0  0  0  0  0  0
  -16.8511  -70.2790  -24.3427 C   0  0  0  0  0  0  0  0  0  0  0  0
  -15.5654  -70.2975  -23.6808 N   0  0  0  0  0  0  0  0  0  0  0  0
  -14.3497  -70.5175  -24.2399 C   0  0  0  0  0  0  0  0  0  0  0  0
  -13.4411  -70.1468  -23.2863 C   0  0  0  0  0  0  0  0  0  0  0  0
  -14.1948  -69.8792  -22.1145 C   0  0  0  0  0  0  0  0  0  0  0  0
  -13.6861  -69.4049  -20.7802 C   0  0  0  0  0  0  0  0  0  0  0  0
  -12.7831  -70.3424  -20.0709 N   0  0  0  0  0  0  0  0  0  0  0  0
  -11.5963  -70.6969  -20.8744 C   0  0  0  0  0  0  0  0  0  0  0  0
  -10.3581  -71.0411  -20.0704 C   0  0  0  0  0  0  0  0  0  0  0  0
  -10.4205  -71.8372  -18.9288 C   0  0  0  0  0  0  0  0  0  0  0  0
   -9.2420  -72.1192  -18.2395 C   0  0  0  0  0  0  0  0  0  0  0  0
   -8.0369  -71.6240  -18.7214 C   0  0  0  0  0  0  0  0  0  0  0  0
   -8.0551  -70.8815  -19.8980 C   0  0  0  0  0  0  0  0  0  0  0  0
   -9.1849  -70.5635  -20.5592 N   0  0  0  0  0  0  0  0  0  0  0  0
   -6.9077  -70.4044  -20.4777 O   0  0  0  0  0  0  0  0  0  0  0  0
   -5.7636  -71.1312  -20.0240 C   0  0  0  0  0  0  0  0  0  0  0  0
   -5.7647  -71.1872  -18.5087 C   0  0  0  0  0  0  0  0  0  0  0  0
   -6.9014  -71.9128  -18.0139 O   0  0  0  0  0  0  0  0  0  0  0  0
  -15.5110  -69.9973  -22.3648 N   0  0  0  0  0  0  0  0  0  0  0  0
  1  2  1  0
  2  3  1  0
  3  4  1  0
  4  5  1  0
  5  6  2  0
  6  7  1  0
  7  8  1  0
  8  9  1  0
  9 10  1  0
 10 11  1  0
 11 12  2  0
 12 13  1  0
 13 14  2  0
 14 15  1  0
 15 16  2  0
 15 17  1  0
 17 18  1  0
 18 19  1  0
 19 20  1  0
  7 21  2  0
 21  4  1  0
 16 11  1  0
 20 14  1  0
M  END
>  <energy_score>  (45) 
-26.761036

>  <name>  (45) 
UGEFVIWPBQPAJW-UHFFFAOYSA-N

>  <distance_score>  (45) 
0.822537

>  <original ID>  (45) 
UGEFVIWPBQPAJW-UHFFFAOYSA-N

>  <HIPPO Compound ID>  (45) 
5076

>  <exports>  (45) 
['/opt/xchem-fragalysis-2/maxwin/BulkDock/OUTPUTS/RdRp_knitwork_thumb_site_2_impure_split4000_batch000_211013.sdf', '/opt/xchem-fragalysis-2/maxwin/BulkDock/OUTPUTS/RdRp_knitwork_thumb_site_2_impure_fragalysis.sdf']

>  <fragmenstein_mode>  (45) 
['expansion']

>  <scratch_subdir>  (45) 
['/opt/xchem-fragalysis-2/maxwin/BulkDock/SCRATCH/211013/C5076-P33']

>  <ref_pdb>  (45) 
d0376a

>  <ref_mols>  (45) 
d0174a,d0376a

>  <original SMILES>  (45) 
CCCn1ccc(CNCc2ccc3c(n2)OCCO3)n1

>  <alias>  (45) 
None

>  <tags>  (45) 
['Thumb Site 2 merge', 'Knitwork impure merge', 'AC curated INTERESTING', 'Fragmenstein placed', 'acceptable']

>  <fragmenstein_outcome>  (45) 
['acceptable']

>  <csv_name>  (45) 
RdRp_knitwork_thumb_site_2_impure_split4000_batch000.csv

>  <HIPPO Pose ID>  (45) 
54819

>  <SLURM_JOB_NAME>  (45) 
BulkDock.place:Flavi_NS5_RdRp:RdRp_knitwork_thumb_site_2_impure_split4000_batch000

>  <fragmenstein_runtime>  (45) 
[4.794697046279907]

>  <fragmenstein_error>  (45) 
['']

>  <SLURM_JOB_ID>  (45) 
211013

>  <inchikey>  (45) 
UGEFVIWPBQPAJW-UHFFFAOYSA-N

$$$$
SRYIZWIXZDSVQX-UHFFFAOYSA-N
     RDKit          3D

 23 26  0  0  0  0  0  0  0  0999 V2000
   -6.6425  -72.5849  -17.2996 O   0  0  0  0  0  0  0  0  0  0  0  0
   -7.3424  -72.1193  -18.1940 C   0  0  0  0  0  0  0  0  0  0  0  0
   -8.6992  -71.6729  -17.8478 C   0  0  0  0  0  0  0  0  0  0  0  0
   -9.5294  -71.2150  -18.7819 C   0  0  0  0  0  0  0  0  0  0  0  0
   -9.0433  -71.2000  -20.1832 C   0  0  0  0  0  0  0  0  0  0  0  0
  -10.0223  -70.8101  -21.2444 C   0  0  0  0  0  0  0  0  0  0  0  0
   -9.7518  -71.0954  -22.5877 C   0  0  0  0  0  0  0  0  0  0  0  0
  -10.7018  -70.8134  -23.5656 C   0  0  0  0  0  0  0  0  0  0  0  0
  -11.9082  -70.2607  -23.1715 C   0  0  0  0  0  0  0  0  0  0  0  0
  -12.2052  -69.9581  -21.8911 N   0  0  0  0  0  0  0  0  0  0  0  0
  -11.2555  -70.2309  -20.9635 C   0  0  0  0  0  0  0  0  0  0  0  0
   -7.8402  -71.5593  -20.5222 N   0  0  0  0  0  0  0  0  0  0  0  0
   -6.9811  -71.9891  -19.5208 N   0  0  0  0  0  0  0  0  0  0  0  0
   -5.6171  -72.3362  -19.9084 C   0  0  0  0  0  0  0  0  0  0  0  0
   -4.7650  -71.1172  -20.1231 C   0  0  0  0  0  0  0  0  0  0  0  0
   -5.0233  -69.9923  -19.4507 N   0  0  0  0  0  0  0  0  0  0  0  0
   -4.0255  -68.8060  -20.0024 S   0  0  0  0  0  0  0  0  0  0  0  0
   -3.1409  -69.7632  -21.1003 C   0  0  0  0  0  0  0  0  0  0  0  0
   -2.0959  -69.3935  -21.9590 C   0  0  0  0  0  0  0  0  0  0  0  0
   -1.5439  -70.3845  -22.7751 C   0  0  0  0  0  0  0  0  0  0  0  0
   -1.9901  -71.6989  -22.7134 C   0  0  0  0  0  0  0  0  0  0  0  0
   -3.0335  -72.0500  -21.8531 C   0  0  0  0  0  0  0  0  0  0  0  0
   -3.6400  -71.0650  -21.0365 C   0  0  0  0  0  0  0  0  0  0  0  0
  1  2  2  0
  2  3  1  0
  3  4  2  0
  4  5  1  0
  5  6  1  0
  6  7  2  0
  7  8  1  0
  8  9  2  0
  9 10  1  0
 10 11  2  0
  5 12  2  0
 12 13  1  0
 13 14  1  0
 14 15  1  0
 15 16  2  0
 16 17  1  0
 17 18  1  0
 18 19  2  0
 19 20  1  0
 20 21  2  0
 21 22  1  0
 22 23  2  0
 13  2  1  0
 23 15  1  0
 11  6  1  0
 23 18  1  0
M  END
>  <energy_score>  (46) 
-54.107404

>  <name>  (46) 
SRYIZWIXZDSVQX-UHFFFAOYSA-N

>  <distance_score>  (46) 
0.981398

>  <original ID>  (46) 
SRYIZWIXZDSVQX-UHFFFAOYSA-N

>  <HIPPO Compound ID>  (46) 
4745

>  <exports>  (46) 
['/opt/xchem-fragalysis-2/maxwin/RdRp_FFF/curation/Curated_DF.sdf']

>  <fragmenstein_mode>  (46) 
expansion

>  <scratch_subdir>  (46) 
/opt/xchem-fragalysis-2/maxwin/BulkDock/SCRATCH/220452/C54989-P100

>  <ref_pdb>  (46) 
d0615a

>  <ref_mols>  (46) 
d0379a,d0615a

>  <original SMILES>  (46) 
O=c1ccc(-c2cccnc2)nn1Cc1nsc2ccccc12

>  <alias>  (46) 
None

>  <tags>  (46) 
['DF curated INTERESTING', 'Knitwork impure merge', 'AC curated INTERESTING', 'Fragmenstein placed', 'Green Site/RNA tunnel merge']

>  <fragmenstein_outcome>  (46) 
too moved

>  <csv_name>  (46) 
RdRp_knitwork_green_site_rna_tunnel_impure_split4000_batch001.csv

>  <HIPPO Pose ID>  (46) 
54989

>  <SLURM_JOB_NAME>  (46) 
BulkDock.place:Flavi_NS5_RdRp:RdRp_knitwork_green_site_rna_tunnel_impure_split4000_batch001

>  <fragmenstein_runtime>  (46) 
3.455919

>  <fragmenstein_error>  (46) 
None

>  <SLURM_JOB_ID>  (46) 
220452

>  <inchikey>  (46) 
SRYIZWIXZDSVQX-UHFFFAOYSA-N

$$$$
LMZFONDIQODLJV-OAHLLOKOSA-N
     RDKit          3D

 22 24  0  0  0  0  0  0  0  0999 V2000
  -13.0732  -68.6120  -20.3107 O   0  0  0  0  0  0  0  0  0  0  0  0
  -13.7530  -69.8800  -20.2468 S   0  0  0  0  0  0  0  0  0  0  0  0
  -14.2359  -70.4142  -18.9876 O   0  0  0  0  0  0  0  0  0  0  0  0
  -15.1333  -69.8413  -21.3905 C   0  0  0  0  0  0  0  0  0  0  0  0
  -14.6822  -69.9589  -22.8346 C   0  0  0  0  0  0  0  0  0  0  0  0
  -15.7652  -69.9882  -23.8512 C   0  0  0  0  0  0  0  0  0  0  0  0
  -17.1525  -69.8164  -23.7014 C   0  0  0  0  0  0  0  0  0  0  0  0
  -17.7905  -69.7564  -24.8704 N   0  0  0  0  0  0  0  0  0  0  0  0
  -16.8283  -70.0602  -25.8197 O   0  0  0  0  0  0  0  0  0  0  0  0
  -15.6294  -70.2111  -25.2034 C   0  0  0  0  0  0  0  0  0  0  0  0
  -12.7753  -71.0670  -20.9062 N   0  0  0  0  0  0  0  0  0  0  0  0
  -11.3970  -70.7276  -21.3334 C   0  0  1  0  0  0  0  0  0  0  0  0
  -10.3401  -71.0161  -20.2729 C   0  0  0  0  0  0  0  0  0  0  0  0
  -10.5102  -71.9604  -19.2542 C   0  0  0  0  0  0  0  0  0  0  0  0
   -9.4600  -72.2089  -18.3796 C   0  0  0  0  0  0  0  0  0  0  0  0
   -8.2569  -71.6063  -18.4517 N   0  0  0  0  0  0  0  0  0  0  0  0
   -8.0985  -70.7067  -19.4419 C   0  0  0  0  0  0  0  0  0  0  0  0
   -9.0986  -70.3651  -20.3395 C   0  0  0  0  0  0  0  0  0  0  0  0
  -11.0429  -71.5229  -22.6032 C   0  0  0  0  0  0  0  0  0  0  0  0
  -11.7262  -71.1281  -23.9484 C   0  0  0  0  0  0  0  0  0  0  0  0
  -10.3997  -71.4531  -24.6533 C   0  0  0  0  0  0  0  0  0  0  0  0
   -9.7077  -71.1620  -23.3183 C   0  0  0  0  0  0  0  0  0  0  0  0
  1  2  2  0
  2  3  2  0
  2  4  1  0
  4  5  1  0
  5  6  1  0
  6  7  1  0
  7  8  2  0
  8  9  1  0
  9 10  1  0
  2 11  1  0
 12 11  1  1
 12 13  1  0
 13 14  2  0
 14 15  1  0
 15 16  2  0
 16 17  1  0
 17 18  2  0
 12 19  1  0
 19 20  1  0
 20 21  1  0
 21 22  1  0
 10  6  2  0
 18 13  1  0
 22 19  1  0
M  END
>  <energy_score>  (47) 
-65.442873

>  <name>  (47) 
LMZFONDIQODLJV-OAHLLOKOSA-N

>  <distance_score>  (47) 
0.792769

>  <original ID>  (47) 
LMZFONDIQODLJV-OAHLLOKOSA-N

>  <HIPPO Compound ID>  (47) 
1453

>  <exports>  (47) 
['/opt/xchem-fragalysis-2/maxwin/BulkDock/OUTPUTS/RdRp_knitwork_thumb_site_2_impure_split4000_batch000_211013.sdf', '/opt/xchem-fragalysis-2/maxwin/BulkDock/OUTPUTS/RdRp_knitwork_thumb_site_2_impure_fragalysis.sdf', '/opt/xchem-fragalysis-2/maxwin/RdRp_FFF/curation/Curated_DF.sdf']

>  <fragmenstein_mode>  (47) 
['expansion']

>  <scratch_subdir>  (47) 
['/opt/xchem-fragalysis-2/maxwin/BulkDock/SCRATCH/211013/C1453-P50']

>  <ref_pdb>  (47) 
d0615a

>  <ref_mols>  (47) 
d0174a,d0615a

>  <original SMILES>  (47) 
O=S(=O)(CCc1cnoc1)N[C@@H](c1ccncc1)C1CCC1

>  <alias>  (47) 
None

>  <tags>  (47) 
['DF curated INTERESTING', 'Thumb Site 2 merge', 'Knitwork impure merge', 'AC curated INTERESTING', 'Fragmenstein placed', 'acceptable']

>  <fragmenstein_outcome>  (47) 
['acceptable']

>  <csv_name>  (47) 
RdRp_knitwork_thumb_site_2_impure_split4000_batch000.csv

>  <HIPPO Pose ID>  (47) 
55030

>  <SLURM_JOB_NAME>  (47) 
BulkDock.place:Flavi_NS5_RdRp:RdRp_knitwork_thumb_site_2_impure_split4000_batch000

>  <fragmenstein_runtime>  (47) 
[5.452700853347778]

>  <fragmenstein_error>  (47) 
['']

>  <SLURM_JOB_ID>  (47) 
211013

>  <inchikey>  (47) 
LMZFONDIQODLJV-OAHLLOKOSA-N

$$$$
QXPKZAYBHAOLKZ-AWEZNQCLSA-N
     RDKit          3D

 21 23  0  0  0  0  0  0  0  0999 V2000
  -12.6058  -68.8107  -20.1157 O   0  0  0  0  0  0  0  0  0  0  0  0
  -13.6003  -69.8223  -20.3660 S   0  0  0  0  0  0  0  0  0  0  0  0
  -14.5465  -70.1834  -19.3272 O   0  0  0  0  0  0  0  0  0  0  0  0
  -14.5073  -69.3947  -21.8589 C   0  0  0  0  0  0  0  0  0  0  0  0
  -15.1497  -70.6075  -22.5050 C   0  0  0  0  0  0  0  0  0  0  0  0
  -15.8794  -70.3067  -23.7630 C   0  0  0  0  0  0  0  0  0  0  0  0
  -17.2452  -69.9972  -23.9250 C   0  0  0  0  0  0  0  0  0  0  0  0
  -17.5640  -69.7278  -25.1912 N   0  0  0  0  0  0  0  0  0  0  0  0
  -16.4101  -69.9836  -25.9130 O   0  0  0  0  0  0  0  0  0  0  0  0
  -15.4121  -70.3190  -25.0566 C   0  0  0  0  0  0  0  0  0  0  0  0
  -12.8432  -71.2482  -20.7489 N   0  0  0  0  0  0  0  0  0  0  0  0
  -11.4923  -71.3566  -21.3168 C   0  0  2  0  0  0  0  0  0  0  0  0
  -10.3741  -71.2849  -20.2924 C   0  0  0  0  0  0  0  0  0  0  0  0
  -10.4544  -72.0275  -19.1037 C   0  0  0  0  0  0  0  0  0  0  0  0
   -9.3693  -72.0897  -18.2322 C   0  0  0  0  0  0  0  0  0  0  0  0
   -8.2157  -71.4124  -18.5760 C   0  0  0  0  0  0  0  0  0  0  0  0
   -8.0946  -70.6716  -19.6930 N   0  0  0  0  0  0  0  0  0  0  0  0
   -9.1706  -70.6166  -20.5154 C   0  0  0  0  0  0  0  0  0  0  0  0
  -11.2991  -70.4705  -22.5136 C   0  0  0  0  0  0  0  0  0  0  0  0
  -10.2926  -70.8363  -23.5862 C   0  0  0  0  0  0  0  0  0  0  0  0
  -11.7543  -70.8643  -23.9001 C   0  0  0  0  0  0  0  0  0  0  0  0
  1  2  2  0
  2  3  2  0
  2  4  1  0
  4  5  1  0
  5  6  1  0
  6  7  1  0
  7  8  2  0
  8  9  1  0
  9 10  1  0
  2 11  1  0
 12 11  1  1
 12 13  1  0
 13 14  2  0
 14 15  1  0
 15 16  2  0
 16 17  1  0
 17 18  2  0
 12 19  1  0
 19 20  1  0
 20 21  1  0
 10  6  2  0
 18 13  1  0
 21 19  1  0
M  END
>  <energy_score>  (48) 
-83.763917

>  <name>  (48) 
QXPKZAYBHAOLKZ-AWEZNQCLSA-N

>  <distance_score>  (48) 
0.828643

>  <original ID>  (48) 
QXPKZAYBHAOLKZ-AWEZNQCLSA-N

>  <HIPPO Compound ID>  (48) 
1504

>  <exports>  (48) 
['/opt/xchem-fragalysis-2/maxwin/BulkDock/OUTPUTS/RdRp_knitwork_thumb_site_2_impure_split4000_batch000_211013.sdf', '/opt/xchem-fragalysis-2/maxwin/BulkDock/OUTPUTS/RdRp_knitwork_thumb_site_2_impure_fragalysis.sdf', '/opt/xchem-fragalysis-2/maxwin/RdRp_FFF/curation/Curated_DF.sdf']

>  <fragmenstein_mode>  (48) 
['expansion']

>  <scratch_subdir>  (48) 
['/opt/xchem-fragalysis-2/maxwin/BulkDock/SCRATCH/211013/C1504-P17']

>  <ref_pdb>  (48) 
d0174a

>  <ref_mols>  (48) 
d0174a,d0615a

>  <original SMILES>  (48) 
O=S(=O)(CCc1cnoc1)N[C@H](c1cccnc1)C1CC1

>  <alias>  (48) 
None

>  <tags>  (48) 
['DF curated INTERESTING', 'Thumb Site 2 merge', 'Knitwork impure merge', 'AC curated INTERESTING', 'Fragmenstein placed', 'acceptable']

>  <fragmenstein_outcome>  (48) 
['acceptable']

>  <csv_name>  (48) 
RdRp_knitwork_thumb_site_2_impure_split4000_batch000.csv

>  <HIPPO Pose ID>  (48) 
55056

>  <SLURM_JOB_NAME>  (48) 
BulkDock.place:Flavi_NS5_RdRp:RdRp_knitwork_thumb_site_2_impure_split4000_batch000

>  <fragmenstein_runtime>  (48) 
[6.390786409378052]

>  <fragmenstein_error>  (48) 
['']

>  <SLURM_JOB_ID>  (48) 
211013

>  <inchikey>  (48) 
QXPKZAYBHAOLKZ-AWEZNQCLSA-N

$$$$
HLHAOIDDWWBQNL-KRWDZBQOSA-N
     RDKit          3D

 24 26  0  0  0  0  0  0  0  0999 V2000
  -12.8958  -68.4726  -19.9384 O   0  0  0  0  0  0  0  0  0  0  0  0
  -13.7777  -69.5614  -20.2669 S   0  0  0  0  0  0  0  0  0  0  0  0
  -14.7373  -70.0478  -19.2983 O   0  0  0  0  0  0  0  0  0  0  0  0
  -14.5920  -69.1984  -21.8181 C   0  0  0  0  0  0  0  0  0  0  0  0
  -15.3911  -70.3790  -22.3262 C   0  0  0  0  0  0  0  0  0  0  0  0
  -15.7876  -70.2599  -23.7503 C   0  0  0  0  0  0  0  0  0  0  0  0
  -17.0694  -70.0271  -24.2926 C   0  0  0  0  0  0  0  0  0  0  0  0
  -17.0505  -69.9687  -25.6244 N   0  0  0  0  0  0  0  0  0  0  0  0
  -15.7398  -70.2275  -25.9852 O   0  0  0  0  0  0  0  0  0  0  0  0
  -14.9936  -70.3946  -24.8663 C   0  0  0  0  0  0  0  0  0  0  0  0
  -12.8368  -70.8810  -20.6413 N   0  0  0  0  0  0  0  0  0  0  0  0
  -11.5202  -70.6568  -21.2628 C   0  0  1  0  0  0  0  0  0  0  0  0
  -10.3617  -71.0661  -20.3623 C   0  0  0  0  0  0  0  0  0  0  0  0
  -10.4023  -72.2002  -19.5347 C   0  0  0  0  0  0  0  0  0  0  0  0
   -9.2916  -72.5706  -18.7707 C   0  0  0  0  0  0  0  0  0  0  0  0
   -8.1105  -71.8398  -18.8495 C   0  0  0  0  0  0  0  0  0  0  0  0
   -8.0455  -70.7259  -19.6772 C   0  0  0  0  0  0  0  0  0  0  0  0
   -9.1626  -70.3350  -20.4158 C   0  0  0  0  0  0  0  0  0  0  0  0
  -11.4104  -71.2820  -22.6402 C   0  0  0  0  0  0  0  0  0  0  0  0
  -10.4929  -70.7876  -23.5782 C   0  0  0  0  0  0  0  0  0  0  0  0
  -10.4172  -71.3437  -24.8496 C   0  0  0  0  0  0  0  0  0  0  0  0
  -11.2570  -72.4008  -25.1490 C   0  0  0  0  0  0  0  0  0  0  0  0
  -12.1406  -72.9253  -24.2718 N   0  0  0  0  0  0  0  0  0  0  0  0
  -12.1783  -72.3712  -23.0376 C   0  0  0  0  0  0  0  0  0  0  0  0
  1  2  2  0
  2  3  2  0
  2  4  1  0
  4  5  1  0
  5  6  1  0
  6  7  1  0
  7  8  2  0
  8  9  1  0
  9 10  1  0
  2 11  1  0
 12 11  1  1
 12 13  1  0
 13 14  2  0
 14 15  1  0
 15 16  2  0
 16 17  1  0
 17 18  2  0
 12 19  1  0
 19 20  2  0
 20 21  1  0
 21 22  2  0
 22 23  1  0
 23 24  2  0
 10  6  2  0
 18 13  1  0
 24 19  1  0
M  END
>  <energy_score>  (49) 
-37.486879

>  <name>  (49) 
HLHAOIDDWWBQNL-KRWDZBQOSA-N

>  <distance_score>  (49) 
0.80666

>  <original ID>  (49) 
HLHAOIDDWWBQNL-KRWDZBQOSA-N

>  <HIPPO Compound ID>  (49) 
1548

>  <exports>  (49) 
['/opt/xchem-fragalysis-2/maxwin/BulkDock/OUTPUTS/RdRp_knitwork_thumb_site_2_impure_split4000_batch000_211013.sdf', '/opt/xchem-fragalysis-2/maxwin/BulkDock/OUTPUTS/RdRp_knitwork_thumb_site_2_impure_fragalysis.sdf', '/opt/xchem-fragalysis-2/maxwin/RdRp_FFF/curation/Curated_DF.sdf']

>  <fragmenstein_mode>  (49) 
['expansion']

>  <scratch_subdir>  (49) 
['/opt/xchem-fragalysis-2/maxwin/BulkDock/SCRATCH/211013/C1548-P17']

>  <ref_pdb>  (49) 
d0174a

>  <ref_mols>  (49) 
d0174a,d0615a

>  <original SMILES>  (49) 
O=S(=O)(CCc1cnoc1)N[C@@H](c1ccccc1)c1cccnc1

>  <alias>  (49) 
None

>  <tags>  (49) 
['DF curated INTERESTING', 'Thumb Site 2 merge', 'Knitwork impure merge', 'AC curated INTERESTING', 'Fragmenstein placed', 'acceptable']

>  <fragmenstein_outcome>  (49) 
['acceptable']

>  <csv_name>  (49) 
RdRp_knitwork_thumb_site_2_impure_split4000_batch000.csv

>  <HIPPO Pose ID>  (49) 
55058

>  <SLURM_JOB_NAME>  (49) 
BulkDock.place:Flavi_NS5_RdRp:RdRp_knitwork_thumb_site_2_impure_split4000_batch000

>  <fragmenstein_runtime>  (49) 
[5.372358798980713]

>  <fragmenstein_error>  (49) 
['']

>  <SLURM_JOB_ID>  (49) 
211013

>  <inchikey>  (49) 
HLHAOIDDWWBQNL-KRWDZBQOSA-N

$$$$
AJQQGJNKKDEODG-UHFFFAOYSA-N
     RDKit          3D

 11 12  0  0  0  0  0  0  0  0999 V2000
  -15.3054  -44.7297  -21.1642 C   0  0  0  0  0  0  0  0  0  0  0  0
  -14.5560  -43.6147  -21.5105 C   0  0  0  0  0  0  0  0  0  0  0  0
  -13.7686  -43.0043  -20.5330 C   0  0  0  0  0  0  0  0  0  0  0  0
  -13.0322  -41.7773  -20.8209 C   0  0  0  0  0  0  0  0  0  0  0  0
  -13.3224  -40.7019  -21.6423 C   0  0  0  0  0  0  0  0  0  0  0  0
  -12.3431  -39.7413  -21.5814 N   0  0  0  0  0  0  0  0  0  0  0  0
  -11.4766  -40.1978  -20.7086 C   0  0  0  0  0  0  0  0  0  0  0  0
  -11.8175  -41.4437  -20.2632 N   0  0  0  0  0  0  0  0  0  0  0  0
  -13.7697  -43.5516  -19.2490 C   0  0  0  0  0  0  0  0  0  0  0  0
  -14.5574  -44.6652  -18.9993 C   0  0  0  0  0  0  0  0  0  0  0  0
  -15.3133  -45.2828  -19.9305 N   0  0  0  0  0  0  0  0  0  0  0  0
  1  2  2  0
  2  3  1  0
  3  4  1  0
  4  5  2  0
  5  6  1  0
  6  7  2  0
  7  8  1  0
  3  9  2  0
  9 10  1  0
 10 11  2  0
 11  1  1  0
  8  4  1  0
M  END
>  <energy_score>  (50) 
-11.85689

>  <name>  (50) 
AJQQGJNKKDEODG-UHFFFAOYSA-N

>  <distance_score>  (50) 
0.859558

>  <original ID>  (50) 
AJQQGJNKKDEODG-UHFFFAOYSA-N

>  <HIPPO Compound ID>  (50) 
8715

>  <exports>  (50) 
['/opt/xchem-fragalysis-2/maxwin/BulkDock/OUTPUTS/RdRp_knitwork_primer_grip_n_pocket_impure_split4000_batch000_211032.sdf', '/opt/xchem-fragalysis-2/maxwin/BulkDock/OUTPUTS/RdRp_knitwork_primer_grip_n_pocket_impure_fragalysis.sdf', '/opt/xchem-fragalysis-2/maxwin/RdRp_FFF/curation/Curated_DF.sdf']

>  <fragmenstein_mode>  (50) 
['expansion']

>  <scratch_subdir>  (50) 
['/opt/xchem-fragalysis-2/maxwin/BulkDock/SCRATCH/211032/C8715-P42']

>  <ref_pdb>  (50) 
d0472a

>  <ref_mols>  (50) 
d0472a,z0875c

>  <original SMILES>  (50) 
c1cc(-c2cnc[nH]2)ccn1

>  <alias>  (50) 
None

>  <tags>  (50) 
['Primer grip/N-pocket merge', 'Knitwork impure merge', 'DF curated YES', 'AC curated YES', 'Fragmenstein placed', 'acceptable']

>  <fragmenstein_outcome>  (50) 
['acceptable']

>  <csv_name>  (50) 
RdRp_knitwork_primer_grip_n_pocket_impure_split4000_batch000.csv

>  <HIPPO Pose ID>  (50) 
55140

>  <SLURM_JOB_NAME>  (50) 
BulkDock.place:Flavi_NS5_RdRp:RdRp_knitwork_primer_grip_n_pocket_impure_split4000_batch000

>  <fragmenstein_runtime>  (50) 
[1.4302153587341309]

>  <fragmenstein_error>  (50) 
['']

>  <SLURM_JOB_ID>  (50) 
211032

>  <inchikey>  (50) 
AJQQGJNKKDEODG-UHFFFAOYSA-N

$$$$
PXNMOXNSHAKQAT-UHFFFAOYSA-N
     RDKit          3D

 14 15  0  0  0  0  0  0  0  0999 V2000
  -14.1328  -69.7704  -18.7807 O   0  0  0  0  0  0  0  0  0  0  0  0
  -13.3274  -69.8210  -19.7136 C   0  0  0  0  0  0  0  0  0  0  0  0
  -11.9111  -70.1173  -19.3912 C   0  0  0  0  0  0  0  0  0  0  0  0
  -11.0134  -70.8023  -20.1187 C   0  0  0  0  0  0  0  0  0  0  0  0
   -9.6804  -71.0296  -19.5183 C   0  0  0  0  0  0  0  0  0  0  0  0
   -9.5289  -71.7664  -18.3448 C   0  0  0  0  0  0  0  0  0  0  0  0
   -8.2449  -71.9880  -17.8516 C   0  0  0  0  0  0  0  0  0  0  0  0
   -7.1548  -71.4658  -18.5375 C   0  0  0  0  0  0  0  0  0  0  0  0
   -7.3956  -70.7382  -19.6909 C   0  0  0  0  0  0  0  0  0  0  0  0
   -8.6305  -70.5114  -20.1923 N   0  0  0  0  0  0  0  0  0  0  0  0
  -11.1914  -71.4346  -21.4744 C   0  0  0  0  0  0  0  0  0  0  0  0
  -12.0302  -70.6833  -22.5018 C   0  0  0  0  0  0  0  0  0  0  0  0
  -13.5006  -70.5671  -22.1285 C   0  0  0  0  0  0  0  0  0  0  0  0
  -13.7452  -69.4685  -21.1155 C   0  0  0  0  0  0  0  0  0  0  0  0
  1  2  2  0
  2  3  1  0
  3  4  2  0
  4  5  1  0
  5  6  2  0
  6  7  1  0
  7  8  2  0
  8  9  1  0
  9 10  2  0
  4 11  1  0
 11 12  1  0
 12 13  1  0
 13 14  1  0
 14  2  1  0
 10  5  1  0
M  END
>  <energy_score>  (51) 
-25.183749

>  <name>  (51) 
PXNMOXNSHAKQAT-UHFFFAOYSA-N

>  <distance_score>  (51) 
0.981192

>  <original ID>  (51) 
PXNMOXNSHAKQAT-UHFFFAOYSA-N

>  <HIPPO Compound ID>  (51) 
6954

>  <exports>  (51) 
['/opt/xchem-fragalysis-2/maxwin/BulkDock/OUTPUTS/RdRp_knitwork_thumb_site_2_impure_split4000_batch000_211013.sdf', '/opt/xchem-fragalysis-2/maxwin/BulkDock/OUTPUTS/RdRp_knitwork_thumb_site_2_impure_fragalysis.sdf']

>  <fragmenstein_mode>  (51) 
['expansion']

>  <scratch_subdir>  (51) 
['/opt/xchem-fragalysis-2/maxwin/BulkDock/SCRATCH/211013/C6954-P50']

>  <ref_pdb>  (51) 
d0615a

>  <ref_mols>  (51) 
d0566a,d0615a

>  <original SMILES>  (51) 
O=C1C=C(c2ccccn2)CCCC1

>  <alias>  (51) 
None

>  <tags>  (51) 
['Thumb Site 2 merge', 'Knitwork impure merge', 'AC curated YES', 'Fragmenstein placed', 'acceptable']

>  <fragmenstein_outcome>  (51) 
['acceptable']

>  <csv_name>  (51) 
RdRp_knitwork_thumb_site_2_impure_split4000_batch000.csv

>  <HIPPO Pose ID>  (51) 
58738

>  <SLURM_JOB_NAME>  (51) 
BulkDock.place:Flavi_NS5_RdRp:RdRp_knitwork_thumb_site_2_impure_split4000_batch000

>  <fragmenstein_runtime>  (51) 
[1.4950191974639893]

>  <fragmenstein_error>  (51) 
['']

>  <SLURM_JOB_ID>  (51) 
211013

>  <inchikey>  (51) 
PXNMOXNSHAKQAT-UHFFFAOYSA-N

$$$$
KSJKSHACFSYXRS-VIFPVBQESA-N
     RDKit          3D

 14 15  0  0  0  0  0  0  0  0999 V2000
  -16.1408  -40.8713  -21.4703 O   0  0  0  0  0  0  0  0  0  0  0  0
  -15.0201  -41.4678  -22.1528 C   0  0  2  0  0  0  0  0  0  0  0  0
  -15.2121  -43.0014  -22.1361 C   0  0  0  0  0  0  0  0  0  0  0  0
  -16.5979  -43.3643  -22.5247 N   0  0  0  0  0  0  0  0  0  0  0  0
  -16.8605  -44.8013  -22.4364 C   0  0  0  0  0  0  0  0  0  0  0  0
  -17.2303  -45.2311  -21.0654 C   0  0  0  0  0  0  0  0  0  0  0  0
  -18.4481  -45.4728  -20.4626 C   0  0  0  0  0  0  0  0  0  0  0  0
  -18.1314  -45.9240  -19.1680 C   0  0  0  0  0  0  0  0  0  0  0  0
  -16.8152  -45.9597  -18.9544 N   0  0  0  0  0  0  0  0  0  0  0  0
  -16.2933  -45.5243  -20.1114 N   0  0  0  0  0  0  0  0  0  0  0  0
  -13.7613  -40.9983  -21.4538 C   0  0  0  0  0  0  0  0  0  0  0  0
  -13.5469  -39.6338  -22.0715 C   0  0  0  0  0  0  0  0  0  0  0  0
  -13.9728  -39.7272  -23.4335 O   0  0  0  0  0  0  0  0  0  0  0  0
  -14.8731  -40.8526  -23.5473 C   0  0  0  0  0  0  0  0  0  0  0  0
  2  1  1  1
  2  3  1  0
  3  4  1  0
  4  5  1  0
  5  6  1  0
  6  7  2  0
  7  8  1  0
  8  9  2  0
  9 10  1  0
  2 11  1  0
 11 12  1  0
 12 13  1  0
 13 14  1  0
 14  2  1  0
 10  6  1  0
M  END
>  <energy_score>  (52) 
-23.505711

>  <name>  (52) 
KSJKSHACFSYXRS-VIFPVBQESA-N

>  <distance_score>  (52) 
0.763364

>  <original ID>  (52) 
KSJKSHACFSYXRS-VIFPVBQESA-N

>  <HIPPO Compound ID>  (52) 
10197

>  <exports>  (52) 
['/opt/xchem-fragalysis-2/maxwin/BulkDock/OUTPUTS/RdRp_knitwork_primer_grip_n_pocket_pure_split1800_batch008_217042.sdf', '/opt/xchem-fragalysis-2/maxwin/BulkDock/OUTPUTS/RdRp_knitwork_primer_grip_n_pocket_pure_fragalysis.sdf']

>  <fragmenstein_mode>  (52) 
expansion

>  <scratch_subdir>  (52) 
/opt/xchem-fragalysis-2/maxwin/BulkDock/SCRATCH/217042/C10197-P26

>  <ref_pdb>  (52) 
d0254a

>  <ref_mols>  (52) 
d0160a,d0254a

>  <original SMILES>  (52) 
O[C@]1(CNCc2ccn[nH]2)CCOC1

>  <alias>  (52) 
None

>  <tags>  (52) 
['Primer grip/N-pocket merge', 'AC curated INTERESTING', 'Knitwork pure merge', 'Fragmenstein placed', 'acceptable']

>  <fragmenstein_outcome>  (52) 
acceptable

>  <csv_name>  (52) 
RdRp_knitwork_primer_grip_n_pocket_pure_split1800_batch008.csv

>  <HIPPO Pose ID>  (52) 
62308

>  <SLURM_JOB_NAME>  (52) 
BulkDock.place:Flavi_NS5_RdRp:RdRp_knitwork_primer_grip_n_pocket_pure_split1800_batch008

>  <fragmenstein_runtime>  (52) 
2.108268

>  <fragmenstein_error>  (52) 
None

>  <SLURM_JOB_ID>  (52) 
217042

>  <inchikey>  (52) 
KSJKSHACFSYXRS-VIFPVBQESA-N

$$$$
GKONBCCMPJCIRH-SNVBAGLBSA-N
     RDKit          3D

 14 15  0  0  0  0  0  0  0  0999 V2000
  -16.5088  -40.9063  -21.8674 C   0  0  0  0  0  0  0  0  0  0  0  0
  -15.1878  -41.5478  -22.3296 C   0  0  2  0  0  0  0  0  0  0  0  0
  -15.1891  -43.0802  -22.1110 C   0  0  0  0  0  0  0  0  0  0  0  0
  -16.1534  -43.8672  -22.8840 N   0  0  0  0  0  0  0  0  0  0  0  0
  -17.4316  -44.1788  -22.2545 C   0  0  0  0  0  0  0  0  0  0  0  0
  -17.3867  -45.0900  -21.0801 C   0  0  0  0  0  0  0  0  0  0  0  0
  -18.3730  -45.4448  -20.1806 C   0  0  0  0  0  0  0  0  0  0  0  0
  -17.7397  -46.2985  -19.2603 C   0  0  0  0  0  0  0  0  0  0  0  0
  -16.4534  -46.4954  -19.5575 N   0  0  0  0  0  0  0  0  0  0  0  0
  -16.2712  -45.7658  -20.6701 N   0  0  0  0  0  0  0  0  0  0  0  0
  -14.0138  -40.9076  -21.5846 C   0  0  0  0  0  0  0  0  0  0  0  0
  -13.7376  -39.6421  -22.3660 C   0  0  0  0  0  0  0  0  0  0  0  0
  -14.1919  -39.8628  -23.7022 O   0  0  0  0  0  0  0  0  0  0  0  0
  -14.8810  -41.1276  -23.7665 C   0  0  0  0  0  0  0  0  0  0  0  0
  2  1  1  1
  2  3  1  0
  3  4  1  0
  4  5  1  0
  5  6  1  0
  6  7  2  0
  7  8  1  0
  8  9  2  0
  9 10  1  0
  2 11  1  0
 11 12  1  0
 12 13  1  0
 13 14  1  0
 14  2  1  0
 10  6  1  0
M  END
>  <energy_score>  (53) 
-21.171702

>  <name>  (53) 
GKONBCCMPJCIRH-SNVBAGLBSA-N

>  <distance_score>  (53) 
0.964328

>  <original ID>  (53) 
GKONBCCMPJCIRH-SNVBAGLBSA-N

>  <HIPPO Compound ID>  (53) 
10237

>  <exports>  (53) 
['/opt/xchem-fragalysis-2/maxwin/BulkDock/OUTPUTS/RdRp_knitwork_primer_grip_n_pocket_pure_split1800_batch008_217042.sdf', '/opt/xchem-fragalysis-2/maxwin/BulkDock/OUTPUTS/RdRp_knitwork_primer_grip_n_pocket_pure_fragalysis.sdf']

>  <fragmenstein_mode>  (53) 
expansion

>  <scratch_subdir>  (53) 
/opt/xchem-fragalysis-2/maxwin/BulkDock/SCRATCH/217042/C10237-P26

>  <ref_pdb>  (53) 
d0254a

>  <ref_mols>  (53) 
d0160a,d0254a

>  <original SMILES>  (53) 
C[C@]1(CNCc2ccn[nH]2)CCOC1

>  <alias>  (53) 
None

>  <tags>  (53) 
['Primer grip/N-pocket merge', 'AC curated INTERESTING', 'Knitwork pure merge', 'Fragmenstein placed', 'acceptable']

>  <fragmenstein_outcome>  (53) 
acceptable

>  <csv_name>  (53) 
RdRp_knitwork_primer_grip_n_pocket_pure_split1800_batch008.csv

>  <HIPPO Pose ID>  (53) 
62312

>  <SLURM_JOB_NAME>  (53) 
BulkDock.place:Flavi_NS5_RdRp:RdRp_knitwork_primer_grip_n_pocket_pure_split1800_batch008

>  <fragmenstein_runtime>  (53) 
2.800147

>  <fragmenstein_error>  (53) 
None

>  <SLURM_JOB_ID>  (53) 
217042

>  <inchikey>  (53) 
GKONBCCMPJCIRH-SNVBAGLBSA-N

$$$$
DFFAHRILMAZSJI-CBAPKCEASA-N
     RDKit          3D

 14 15  0  0  0  0  0  0  0  0999 V2000
  -16.1126  -41.2166  -24.7302 O   0  0  0  0  0  0  0  0  0  0  0  0
  -14.9418  -41.1419  -23.9413 C   0  0  1  0  0  0  0  0  0  0  0  0
  -14.3827  -39.7352  -23.8297 C   0  0  0  0  0  0  0  0  0  0  0  0
  -13.5441  -39.7246  -22.6630 O   0  0  0  0  0  0  0  0  0  0  0  0
  -13.9505  -40.8317  -21.8306 C   0  0  0  0  0  0  0  0  0  0  0  0
  -15.1816  -41.4572  -22.4756 C   0  0  2  0  0  0  0  0  0  0  0  0
  -15.3640  -42.9427  -22.1462 C   0  0  0  0  0  0  0  0  0  0  0  0
  -16.7170  -43.3840  -22.5143 N   0  0  0  0  0  0  0  0  0  0  0  0
  -16.9260  -44.8225  -22.4435 C   0  0  0  0  0  0  0  0  0  0  0  0
  -17.2312  -45.2783  -21.0649 C   0  0  0  0  0  0  0  0  0  0  0  0
  -18.4148  -45.5837  -20.4252 C   0  0  0  0  0  0  0  0  0  0  0  0
  -18.0344  -46.0053  -19.1380 C   0  0  0  0  0  0  0  0  0  0  0  0
  -16.7119  -45.9675  -18.9640 N   0  0  0  0  0  0  0  0  0  0  0  0
  -16.2510  -45.5086  -20.1390 N   0  0  0  0  0  0  0  0  0  0  0  0
  2  1  1  6
  2  3  1  0
  3  4  1  0
  4  5  1  0
  5  6  1  0
  6  7  1  6
  7  8  1  0
  8  9  1  0
  9 10  1  0
 10 11  2  0
 11 12  1  0
 12 13  2  0
 13 14  1  0
  6  2  1  0
 14 10  1  0
M  END
>  <energy_score>  (54) 
-32.711505

>  <name>  (54) 
DFFAHRILMAZSJI-CBAPKCEASA-N

>  <distance_score>  (54) 
0.879118

>  <original ID>  (54) 
DFFAHRILMAZSJI-CBAPKCEASA-N

>  <HIPPO Compound ID>  (54) 
10275

>  <exports>  (54) 
['/opt/xchem-fragalysis-2/maxwin/BulkDock/OUTPUTS/RdRp_knitwork_primer_grip_n_pocket_pure_split1800_batch008_217042.sdf', '/opt/xchem-fragalysis-2/maxwin/BulkDock/OUTPUTS/RdRp_knitwork_primer_grip_n_pocket_pure_fragalysis.sdf']

>  <fragmenstein_mode>  (54) 
expansion

>  <scratch_subdir>  (54) 
/opt/xchem-fragalysis-2/maxwin/BulkDock/SCRATCH/217042/C10275-P26

>  <ref_pdb>  (54) 
d0254a

>  <ref_mols>  (54) 
d0160a,d0254a

>  <original SMILES>  (54) 
O[C@H]1COC[C@@H]1CNCc1ccn[nH]1

>  <alias>  (54) 
None

>  <tags>  (54) 
['Primer grip/N-pocket merge', 'AC curated YES', 'Knitwork pure merge', 'Fragmenstein placed', 'acceptable']

>  <fragmenstein_outcome>  (54) 
acceptable

>  <csv_name>  (54) 
RdRp_knitwork_primer_grip_n_pocket_pure_split1800_batch008.csv

>  <HIPPO Pose ID>  (54) 
62317

>  <SLURM_JOB_NAME>  (54) 
BulkDock.place:Flavi_NS5_RdRp:RdRp_knitwork_primer_grip_n_pocket_pure_split1800_batch008

>  <fragmenstein_runtime>  (54) 
1.996471

>  <fragmenstein_error>  (54) 
None

>  <SLURM_JOB_ID>  (54) 
217042

>  <inchikey>  (54) 
DFFAHRILMAZSJI-CBAPKCEASA-N

$$$$
RVTMFWDQLFZZMH-AWEZNQCLSA-N
     RDKit          3D

 21 22  0  0  0  0  0  0  0  0999 V2000
  -16.6140  -39.4600  -20.5804 C   0  0  0  0  0  0  0  0  0  0  0  0
  -16.2093  -39.0568  -21.7976 C   0  0  0  0  0  0  0  0  0  0  0  0
  -15.6846  -37.6787  -22.1044 C   0  0  0  0  0  0  0  0  0  0  0  0
  -14.2271  -37.5848  -22.1067 N   0  0  0  0  0  0  0  0  0  0  0  0
  -13.4842  -36.5522  -21.5910 C   0  0  0  0  0  0  0  0  0  0  0  0
  -12.1876  -36.8124  -21.9709 C   0  0  0  0  0  0  0  0  0  0  0  0
  -12.1247  -37.9828  -22.6815 N   0  0  0  0  0  0  0  0  0  0  0  0
  -13.3580  -38.4372  -22.7238 C   0  0  0  0  0  0  0  0  0  0  0  0
  -16.4102  -39.9421  -22.9937 C   0  0  0  0  0  0  0  0  0  0  0  0
  -16.8943  -39.5348  -23.9701 O   0  0  0  0  0  0  0  0  0  0  0  0
  -15.7916  -41.3166  -22.6856 N   0  0  0  0  0  0  0  0  0  0  0  0
  -15.5482  -42.4685  -23.5587 C   0  0  2  0  0  0  0  0  0  0  0  0
  -16.3791  -42.4393  -24.8589 C   0  0  0  0  0  0  0  0  0  0  0  0
  -15.9344  -41.4262  -25.7493 O   0  0  0  0  0  0  0  0  0  0  0  0
  -15.8274  -43.8002  -22.8240 C   0  0  0  0  0  0  0  0  0  0  0  0
  -15.2233  -43.9873  -21.4560 C   0  0  0  0  0  0  0  0  0  0  0  0
  -13.9963  -43.4433  -21.0749 C   0  0  0  0  0  0  0  0  0  0  0  0
  -13.5393  -43.6060  -19.7722 C   0  0  0  0  0  0  0  0  0  0  0  0
  -14.3064  -44.3549  -18.9003 C   0  0  0  0  0  0  0  0  0  0  0  0
  -15.4521  -44.9757  -19.2486 N   0  0  0  0  0  0  0  0  0  0  0  0
  -15.8851  -44.7707  -20.5125 C   0  0  0  0  0  0  0  0  0  0  0  0
  1  2  2  0
  2  3  1  0
  3  4  1  0
  4  5  1  0
  5  6  2  0
  6  7  1  0
  7  8  2  0
  2  9  1  0
  9 10  2  0
  9 11  1  0
 11 12  1  0
 12 13  1  6
 13 14  1  0
 12 15  1  0
 15 16  1  0
 16 17  2  0
 17 18  1  0
 18 19  2  0
 19 20  1  0
 20 21  2  0
  8  4  1  0
 21 16  1  0
M  END
>  <energy_score>  (55) 
-191.449485

>  <name>  (55) 
RVTMFWDQLFZZMH-AWEZNQCLSA-N

>  <distance_score>  (55) 
0.776264

>  <original ID>  (55) 
RVTMFWDQLFZZMH-AWEZNQCLSA-N

>  <HIPPO Compound ID>  (55) 
9237

>  <exports>  (55) 
nan

>  <fragmenstein_mode>  (55) 
expansion

>  <scratch_subdir>  (55) 
/opt/xchem-fragalysis-2/maxwin/BulkDock/SCRATCH/220470/C63089-P141

>  <ref_pdb>  (55) 
d0472a

>  <ref_mols>  (55) 
d0472a,z0103a

>  <original SMILES>  (55) 
C=C(Cn1ccnc1)C(=O)N[C@H](CO)Cc1cccnc1

>  <alias>  (55) 
None

>  <tags>  (55) 
['Knitwork impure merge', 'Fragmenstein placed', 'Green Site/RNA tunnel merge', 'AC curated YES']

>  <fragmenstein_outcome>  (55) 
too moved

>  <csv_name>  (55) 
RdRp_knitwork_green_site_rna_tunnel_impure_split4000_batch019.csv

>  <HIPPO Pose ID>  (55) 
63089

>  <SLURM_JOB_NAME>  (55) 
BulkDock.place:Flavi_NS5_RdRp:RdRp_knitwork_green_site_rna_tunnel_impure_split4000_batch019

>  <fragmenstein_runtime>  (55) 
6.741412

>  <fragmenstein_error>  (55) 
None

>  <SLURM_JOB_ID>  (55) 
220470

>  <inchikey>  (55) 
RVTMFWDQLFZZMH-AWEZNQCLSA-N

$$$$
SSVXXQWWLAHTNL-UHFFFAOYSA-N
     RDKit          3D

 22 25  0  0  0  0  0  0  0  0999 V2000
  -11.6159  -36.5188  -22.0470 C   0  0  0  0  0  0  0  0  0  0  0  0
  -12.8304  -35.8840  -21.9440 C   0  0  0  0  0  0  0  0  0  0  0  0
  -14.0167  -36.5329  -21.8757 N   0  0  0  0  0  0  0  0  0  0  0  0
  -13.9928  -37.8870  -21.8396 C   0  0  0  0  0  0  0  0  0  0  0  0
  -12.8254  -38.6191  -21.8583 C   0  0  0  0  0  0  0  0  0  0  0  0
  -12.7457  -40.0177  -21.5076 C   0  0  0  0  0  0  0  0  0  0  0  0
  -11.6453  -40.6152  -21.1136 N   0  0  0  0  0  0  0  0  0  0  0  0
  -12.0003  -41.8362  -20.6603 N   0  0  0  0  0  0  0  0  0  0  0  0
  -13.2959  -41.9539  -20.8481 C   0  0  0  0  0  0  0  0  0  0  0  0
  -14.1302  -43.0345  -20.3581 C   0  0  0  0  0  0  0  0  0  0  0  0
  -13.8420  -43.5074  -19.0720 C   0  0  0  0  0  0  0  0  0  0  0  0
  -14.5442  -44.5833  -18.5839 C   0  0  0  0  0  0  0  0  0  0  0  0
  -15.4604  -45.2467  -19.3026 N   0  0  0  0  0  0  0  0  0  0  0  0
  -15.7550  -44.7768  -20.5452 C   0  0  0  0  0  0  0  0  0  0  0  0
  -16.7575  -45.4970  -21.2446 N   0  0  0  0  0  0  0  0  0  0  0  0
  -17.3299  -46.6779  -20.8173 C   0  0  0  0  0  0  0  0  0  0  0  0
  -18.2401  -47.0238  -21.7827 C   0  0  0  0  0  0  0  0  0  0  0  0
  -18.2712  -46.0844  -22.7756 N   0  0  0  0  0  0  0  0  0  0  0  0
  -17.3701  -45.1893  -22.4326 C   0  0  0  0  0  0  0  0  0  0  0  0
  -15.1234  -43.6664  -21.1097 C   0  0  0  0  0  0  0  0  0  0  0  0
  -13.8635  -40.8151  -21.3849 O   0  0  0  0  0  0  0  0  0  0  0  0
  -11.6208  -37.9038  -22.0117 C   0  0  0  0  0  0  0  0  0  0  0  0
  1  2  2  0
  2  3  1  0
  3  4  2  0
  4  5  1  0
  5  6  1  0
  6  7  2  0
  7  8  1  0
  8  9  2  0
  9 10  1  0
 10 11  2  0
 11 12  1  0
 12 13  2  0
 13 14  1  0
 14 15  1  0
 15 16  1  0
 16 17  2  0
 17 18  1  0
 18 19  2  0
 14 20  2  0
  9 21  1  0
  5 22  2  0
 22  1  1  0
 21  6  1  0
 20 10  1  0
 19 15  1  0
M  END
>  <energy_score>  (56) 
-20.155261

>  <name>  (56) 
SSVXXQWWLAHTNL-UHFFFAOYSA-N

>  <distance_score>  (56) 
0.961848

>  <original ID>  (56) 
SSVXXQWWLAHTNL-UHFFFAOYSA-N

>  <HIPPO Compound ID>  (56) 
21233

>  <exports>  (56) 
['/opt/xchem-fragalysis-2/maxwin/RdRp_FFF/curation/Curated_DF.sdf']

>  <fragmenstein_mode>  (56) 
expansion

>  <scratch_subdir>  (56) 
/opt/xchem-fragalysis-2/maxwin/BulkDock/SCRATCH/220469/C63254-P153

>  <ref_pdb>  (56) 
d0472a

>  <ref_mols>  (56) 
d0472a,z0103a

>  <original SMILES>  (56) 
c1cncc(-c2nnc(-c3ccnc(-n4ccnc4)c3)o2)c1

>  <alias>  (56) 
None

>  <tags>  (56) 
['Knitwork impure merge', 'DF curated YES', 'AC curated INTERESTING', 'Fragmenstein placed', 'Green Site/RNA tunnel merge']

>  <fragmenstein_outcome>  (56) 
too moved

>  <csv_name>  (56) 
RdRp_knitwork_green_site_rna_tunnel_impure_split4000_batch018.csv

>  <HIPPO Pose ID>  (56) 
63254

>  <SLURM_JOB_NAME>  (56) 
BulkDock.place:Flavi_NS5_RdRp:RdRp_knitwork_green_site_rna_tunnel_impure_split4000_batch018

>  <fragmenstein_runtime>  (56) 
14.556257

>  <fragmenstein_error>  (56) 
None

>  <SLURM_JOB_ID>  (56) 
220469

>  <inchikey>  (56) 
SSVXXQWWLAHTNL-UHFFFAOYSA-N

$$$$
OGZOZASNCRKGGW-UKRRQHHQSA-N
     RDKit          3D

 22 23  0  0  0  0  0  0  0  0999 V2000
  -15.1996  -40.5811  -21.0949 O   0  0  0  0  0  0  0  0  0  0  0  0
  -15.9891  -40.4362  -21.9398 C   0  0  0  0  0  0  0  0  0  0  0  0
  -16.9300  -39.2348  -21.9530 C   0  0  0  0  0  0  0  0  0  0  0  0
  -16.1880  -37.9695  -22.3961 C   0  0  0  0  0  0  0  0  0  0  0  0
  -15.1879  -37.4649  -21.3410 C   0  0  0  0  0  0  0  0  0  0  0  0
  -13.8189  -37.3458  -21.8078 N   0  0  0  0  0  0  0  0  0  0  0  0
  -13.0017  -36.2614  -21.6346 C   0  0  0  0  0  0  0  0  0  0  0  0
  -11.8033  -36.6198  -22.2057 C   0  0  0  0  0  0  0  0  0  0  0  0
  -11.8787  -37.8851  -22.7316 N   0  0  0  0  0  0  0  0  0  0  0  0
  -13.0806  -38.3176  -22.4194 C   0  0  0  0  0  0  0  0  0  0  0  0
  -16.2372  -41.2514  -23.2289 N   0  0  0  0  0  0  0  0  0  0  0  0
  -15.6153  -42.4929  -23.7069 C   0  0  2  0  0  0  0  0  0  0  0  0
  -16.0998  -42.7100  -25.1608 C   0  0  0  0  0  0  0  0  0  0  0  0
  -17.5327  -42.7314  -25.2405 O   0  0  0  0  0  0  0  0  0  0  0  0
  -15.9733  -43.7553  -22.8610 C   0  0  2  0  0  0  0  0  0  0  0  0
  -17.4135  -43.7969  -22.7459 O   0  0  0  0  0  0  0  0  0  0  0  0
  -15.3533  -43.9628  -21.5017 C   0  0  0  0  0  0  0  0  0  0  0  0
  -14.1654  -43.3600  -21.0874 C   0  0  0  0  0  0  0  0  0  0  0  0
  -13.6721  -43.5880  -19.8060 C   0  0  0  0  0  0  0  0  0  0  0  0
  -14.3655  -44.4535  -18.9833 C   0  0  0  0  0  0  0  0  0  0  0  0
  -15.4614  -45.1391  -19.3662 N   0  0  0  0  0  0  0  0  0  0  0  0
  -15.9247  -44.8737  -20.6099 C   0  0  0  0  0  0  0  0  0  0  0  0
  1  2  2  0
  2  3  1  0
  3  4  1  0
  4  5  1  0
  5  6  1  0
  6  7  1  0
  7  8  2  0
  8  9  1  0
  9 10  2  0
  2 11  1  0
 11 12  1  0
 12 13  1  6
 13 14  1  0
 12 15  1  0
 15 16  1  1
 15 17  1  0
 17 18  2  0
 18 19  1  0
 19 20  2  0
 20 21  1  0
 21 22  2  0
 10  6  1  0
 22 17  1  0
M  END
>  <energy_score>  (57) 
-46.644808

>  <name>  (57) 
OGZOZASNCRKGGW-UKRRQHHQSA-N

>  <distance_score>  (57) 
0.701444

>  <original ID>  (57) 
OGZOZASNCRKGGW-UKRRQHHQSA-N

>  <HIPPO Compound ID>  (57) 
21752

>  <exports>  (57) 
['/opt/xchem-fragalysis-2/maxwin/BulkDock/OUTPUTS/RdRp_knitwork_primer_grip_n_pocket_pure_split1800_batch007_217041.sdf', '/opt/xchem-fragalysis-2/maxwin/BulkDock/OUTPUTS/RdRp_knitwork_primer_grip_n_pocket_pure_fragalysis.sdf']

>  <fragmenstein_mode>  (57) 
expansion

>  <scratch_subdir>  (57) 
/opt/xchem-fragalysis-2/maxwin/BulkDock/SCRATCH/217041/C21752-P42

>  <ref_pdb>  (57) 
d0472a

>  <ref_mols>  (57) 
d0472a,z0103a

>  <original SMILES>  (57) 
O=C(CCCn1ccnc1)N[C@H](CO)[C@H](O)c1cccnc1

>  <alias>  (57) 
None

>  <tags>  (57) 
['Primer grip/N-pocket merge', 'AC curated INTERESTING', 'Knitwork pure merge', 'Fragmenstein placed', 'acceptable']

>  <fragmenstein_outcome>  (57) 
acceptable

>  <csv_name>  (57) 
RdRp_knitwork_primer_grip_n_pocket_pure_split1800_batch007.csv

>  <HIPPO Pose ID>  (57) 
63518

>  <SLURM_JOB_NAME>  (57) 
BulkDock.place:Flavi_NS5_RdRp:RdRp_knitwork_primer_grip_n_pocket_pure_split1800_batch007

>  <fragmenstein_runtime>  (57) 
5.108307

>  <fragmenstein_error>  (57) 
None

>  <SLURM_JOB_ID>  (57) 
217041

>  <inchikey>  (57) 
OGZOZASNCRKGGW-UKRRQHHQSA-N

$$$$
ISGOZNHBHDSYOK-JTQLQIEISA-N
     RDKit          3D

 22 24  0  0  0  0  0  0  0  0999 V2000
  -16.8102  -41.4676  -21.6223 C   0  0  0  0  0  0  0  0  0  0  0  0
  -16.0194  -40.9185  -22.8067 C   0  0  1  0  0  0  0  0  0  0  0  0
  -14.6769  -41.6431  -22.9637 C   0  0  0  0  0  0  0  0  0  0  0  0
  -13.6344  -41.1349  -22.0172 C   0  0  0  0  0  0  0  0  0  0  0  0
  -12.8715  -41.7798  -21.0652 C   0  0  0  0  0  0  0  0  0  0  0  0
  -11.9406  -40.9270  -20.5282 N   0  0  0  0  0  0  0  0  0  0  0  0
  -12.1453  -39.7708  -21.1099 C   0  0  0  0  0  0  0  0  0  0  0  0
  -13.1601  -39.8451  -22.0188 N   0  0  0  0  0  0  0  0  0  0  0  0
  -16.8487  -41.0408  -24.0921 C   0  0  0  0  0  0  0  0  0  0  0  0
  -17.8277  -41.6702  -24.1646 O   0  0  0  0  0  0  0  0  0  0  0  0
  -16.1579  -40.1350  -25.1416 N   0  0  0  0  0  0  0  0  0  0  0  0
  -16.5803  -39.7436  -26.4612 C   0  0  0  0  0  0  0  0  0  0  0  0
  -17.5109  -38.5927  -26.3564 C   0  0  0  0  0  0  0  0  0  0  0  0
  -18.4716  -38.2117  -27.1716 N   0  0  0  0  0  0  0  0  0  0  0  0
  -19.0877  -37.1326  -26.5785 N   0  0  0  0  0  0  0  0  0  0  0  0
  -18.4804  -36.9430  -25.4246 C   0  0  0  0  0  0  0  0  0  0  0  0
  -18.7213  -36.0353  -24.4672 N   0  0  0  0  0  0  0  0  0  0  0  0
  -19.8406  -35.1262  -24.5646 C   0  0  0  0  0  0  0  0  0  0  0  0
  -19.7709  -34.3421  -23.2598 C   0  0  0  0  0  0  0  0  0  0  0  0
  -19.2416  -35.3737  -22.2749 C   0  0  0  0  0  0  0  0  0  0  0  0
  -18.2519  -36.1942  -23.1030 C   0  0  0  0  0  0  0  0  0  0  0  0
  -17.4500  -37.8158  -25.2267 O   0  0  0  0  0  0  0  0  0  0  0  0
  2  1  1  1
  2  3  1  0
  3  4  1  0
  4  5  2  0
  5  6  1  0
  6  7  2  0
  7  8  1  0
  2  9  1  0
  9 10  2  0
  9 11  1  0
 11 12  1  0
 12 13  1  0
 13 14  2  0
 14 15  1  0
 15 16  2  0
 16 17  1  0
 17 18  1  0
 18 19  1  0
 19 20  1  0
 20 21  1  0
 16 22  1  0
  8  4  1  0
 22 13  1  0
 21 17  1  0
M  END
>  <energy_score>  (58) 
-63.595465

>  <name>  (58) 
ISGOZNHBHDSYOK-JTQLQIEISA-N

>  <distance_score>  (58) 
0.887666

>  <original ID>  (58) 
ISGOZNHBHDSYOK-JTQLQIEISA-N

>  <HIPPO Compound ID>  (58) 
23300

>  <exports>  (58) 
['/opt/xchem-fragalysis-2/maxwin/BulkDock/OUTPUTS/RdRp_knitwork_primer_grip_n_pocket_pure_split1800_batch009_217043.sdf', '/opt/xchem-fragalysis-2/maxwin/BulkDock/OUTPUTS/RdRp_knitwork_primer_grip_n_pocket_pure_fragalysis.sdf']

>  <fragmenstein_mode>  (58) 
expansion

>  <scratch_subdir>  (58) 
/opt/xchem-fragalysis-2/maxwin/BulkDock/SCRATCH/217043/C23300-P68

>  <ref_pdb>  (58) 
d0866a

>  <ref_mols>  (58) 
d0866a,z0875c

>  <original SMILES>  (58) 
C[C@@H](Cc1cnc[nH]1)C(=O)NCc1nnc(N2CCCC2)o1

>  <alias>  (58) 
None

>  <tags>  (58) 
['Primer grip/N-pocket merge', 'AC curated INTERESTING', 'Knitwork pure merge', 'Fragmenstein placed', 'acceptable']

>  <fragmenstein_outcome>  (58) 
acceptable

>  <csv_name>  (58) 
RdRp_knitwork_primer_grip_n_pocket_pure_split1800_batch009.csv

>  <HIPPO Pose ID>  (58) 
63661

>  <SLURM_JOB_NAME>  (58) 
BulkDock.place:Flavi_NS5_RdRp:RdRp_knitwork_primer_grip_n_pocket_pure_split1800_batch009

>  <fragmenstein_runtime>  (58) 
11.646739

>  <fragmenstein_error>  (58) 
None

>  <SLURM_JOB_ID>  (58) 
217043

>  <inchikey>  (58) 
ISGOZNHBHDSYOK-JTQLQIEISA-N

$$$$
QYNKZXZODFVRMI-WDEREUQCSA-N
     RDKit          3D

 22 23  0  0  0  0  0  0  0  0999 V2000
  -15.2152  -47.2110  -18.7577 C   0  0  0  0  0  0  0  0  0  0  0  0
  -16.5171  -47.6032  -19.4320 C   0  0  0  0  0  0  0  0  0  0  0  0
  -17.4324  -46.4834  -19.9352 C   0  0  2  0  0  0  0  0  0  0  0  0
  -16.7732  -45.6912  -20.9493 N   0  0  0  0  0  0  0  0  0  0  0  0
  -17.3207  -45.0961  -22.2702 C   0  0  0  0  0  0  0  0  0  0  0  0
  -18.3386  -45.2166  -22.7649 O   0  0  0  0  0  0  0  0  0  0  0  0
  -16.1165  -44.2112  -22.6649 N   0  0  0  0  0  0  0  0  0  0  0  0
  -15.9906  -43.2761  -23.6564 C   0  0  0  0  0  0  0  0  0  0  0  0
  -16.9341  -43.0889  -24.6551 C   0  0  0  0  0  0  0  0  0  0  0  0
  -16.7595  -42.0210  -25.5341 C   0  0  0  0  0  0  0  0  0  0  0  0
  -15.6819  -41.1677  -25.3465 C   0  0  0  0  0  0  0  0  0  0  0  0
  -15.5183  -40.0984  -26.1710 O   0  0  0  0  0  0  0  0  0  0  0  0
  -15.6180  -38.8613  -25.4597 C   0  0  0  0  0  0  0  0  0  0  0  0
  -16.8629  -38.7571  -24.9258 F   0  0  0  0  0  0  0  0  0  0  0  0
  -14.7306  -38.8226  -24.4257 F   0  0  0  0  0  0  0  0  0  0  0  0
  -14.7796  -41.4650  -24.3411 C   0  0  0  0  0  0  0  0  0  0  0  0
  -14.9083  -42.4979  -23.4918 N   0  0  0  0  0  0  0  0  0  0  0  0
  -18.0284  -45.6095  -18.7983 C   0  0  1  0  0  0  0  0  0  0  0  0
  -17.0981  -44.5620  -18.2041 C   0  0  0  0  0  0  0  0  0  0  0  0
  -17.3500  -43.3427  -19.0488 C   0  0  0  0  0  0  0  0  0  0  0  0
  -18.8079  -43.4825  -19.4211 C   0  0  0  0  0  0  0  0  0  0  0  0
  -19.1642  -44.8630  -19.2936 O   0  0  0  0  0  0  0  0  0  0  0  0
  1  2  1  0
  3  2  1  1
  3  4  1  0
  4  5  1  0
  5  6  2  0
  5  7  1  0
  7  8  1  0
  8  9  2  0
  9 10  1  0
 10 11  2  0
 11 12  1  0
 12 13  1  0
 13 14  1  0
 13 15  1  0
 11 16  1  0
 16 17  2  0
  3 18  1  0
 18 19  1  6
 19 20  1  0
 20 21  1  0
 21 22  1  0
 17  8  1  0
 22 18  1  0
M  END
>  <energy_score>  (59) 
-10.073686

>  <name>  (59) 
QYNKZXZODFVRMI-WDEREUQCSA-N

>  <distance_score>  (59) 
0.990129

>  <original ID>  (59) 
QYNKZXZODFVRMI-WDEREUQCSA-N

>  <HIPPO Compound ID>  (59) 
17764

>  <exports>  (59) 
['/opt/xchem-fragalysis-2/maxwin/BulkDock/OUTPUTS/RdRp_knitwork_primer_grip_n_pocket_pure_split1800_batch008_217042.sdf', '/opt/xchem-fragalysis-2/maxwin/BulkDock/OUTPUTS/RdRp_knitwork_primer_grip_n_pocket_pure_fragalysis.sdf']

>  <fragmenstein_mode>  (59) 
expansion

>  <scratch_subdir>  (59) 
/opt/xchem-fragalysis-2/maxwin/BulkDock/SCRATCH/217042/C17764-P12

>  <ref_pdb>  (59) 
d0160a

>  <ref_mols>  (59) 
d0160a,d0254a

>  <original SMILES>  (59) 
CC[C@H](NC(=O)Nc1ccc(OC(F)F)cn1)[C@H]1CCCO1

>  <alias>  (59) 
None

>  <tags>  (59) 
['Primer grip/N-pocket merge', 'AC curated INTERESTING', 'Knitwork pure merge', 'Fragmenstein placed', 'acceptable']

>  <fragmenstein_outcome>  (59) 
acceptable

>  <csv_name>  (59) 
RdRp_knitwork_primer_grip_n_pocket_pure_split1800_batch008.csv

>  <HIPPO Pose ID>  (59) 
64813

>  <SLURM_JOB_NAME>  (59) 
BulkDock.place:Flavi_NS5_RdRp:RdRp_knitwork_primer_grip_n_pocket_pure_split1800_batch008

>  <fragmenstein_runtime>  (59) 
9.744388

>  <fragmenstein_error>  (59) 
None

>  <SLURM_JOB_ID>  (59) 
217042

>  <inchikey>  (59) 
QYNKZXZODFVRMI-WDEREUQCSA-N

$$$$
UIYHLUVSYDHDET-HNNXBMFYSA-N
     RDKit          3D

 22 25  0  0  0  0  0  0  0  0999 V2000
  -13.2965  -38.0601  -19.5251 O   0  0  0  0  0  0  0  0  0  0  0  0
  -12.7670  -38.8962  -20.1406 C   0  0  0  0  0  0  0  0  0  0  0  0
  -11.4088  -39.5939  -19.9180 N   0  0  0  0  0  0  0  0  0  0  0  0
  -10.3558  -39.3374  -18.9270 C   0  0  1  0  0  0  0  0  0  0  0  0
   -8.9643  -39.8680  -19.4186 C   0  0  0  0  0  0  0  0  0  0  0  0
   -8.6234  -38.4223  -19.8598 C   0  0  0  0  0  0  0  0  0  0  0  0
   -9.6927  -37.9820  -18.8842 C   0  0  0  0  0  0  0  0  0  0  0  0
  -10.3829  -36.6659  -19.0684 C   0  0  0  0  0  0  0  0  0  0  0  0
   -9.4503  -36.0985  -18.0455 N   0  0  0  0  0  0  0  0  0  0  0  0
   -9.2165  -37.4749  -17.5365 C   0  0  0  0  0  0  0  0  0  0  0  0
  -13.4587  -39.4471  -21.3304 C   0  0  0  0  0  0  0  0  0  0  0  0
  -13.6462  -40.8119  -21.5261 C   0  0  0  0  0  0  0  0  0  0  0  0
  -14.3551  -41.2489  -22.6515 C   0  0  0  0  0  0  0  0  0  0  0  0
  -14.8323  -40.3171  -23.5770 C   0  0  0  0  0  0  0  0  0  0  0  0
  -15.6041  -40.6929  -24.7827 C   0  0  0  0  0  0  0  0  0  0  0  0
  -15.5341  -39.9322  -25.9584 C   0  0  0  0  0  0  0  0  0  0  0  0
  -16.3066  -40.2912  -27.0568 C   0  0  0  0  0  0  0  0  0  0  0  0
  -17.1550  -41.3433  -27.0763 N   0  0  0  0  0  0  0  0  0  0  0  0
  -17.2054  -42.0731  -25.9439 C   0  0  0  0  0  0  0  0  0  0  0  0
  -16.4670  -41.7976  -24.8000 C   0  0  0  0  0  0  0  0  0  0  0  0
  -14.6351  -38.9851  -23.3882 N   0  0  0  0  0  0  0  0  0  0  0  0
  -13.9896  -38.5786  -22.2658 C   0  0  0  0  0  0  0  0  0  0  0  0
  1  2  2  0
  2  3  1  0
  4  3  1  6
  4  5  1  0
  5  6  1  0
  6  7  1  0
  7  8  1  0
  8  9  1  0
  9 10  1  0
  2 11  1  0
 11 12  2  0
 12 13  1  0
 13 14  2  0
 14 15  1  0
 15 16  2  0
 16 17  1  0
 17 18  2  0
 18 19  1  0
 19 20  2  0
 14 21  1  0
 21 22  2  0
  7  4  1  0
 22 11  1  0
 10  7  1  0
 20 15  1  0
M  END
>  <energy_score>  (60) 
-3.731862

>  <name>  (60) 
UIYHLUVSYDHDET-HNNXBMFYSA-N

>  <distance_score>  (60) 
0.664786

>  <original ID>  (60) 
UIYHLUVSYDHDET-HNNXBMFYSA-N

>  <HIPPO Compound ID>  (60) 
26127

>  <exports>  (60) 
['/opt/xchem-fragalysis-2/maxwin/RdRp_FFF/curation/Curated_DF.sdf']

>  <fragmenstein_mode>  (60) 
expansion

>  <scratch_subdir>  (60) 
/opt/xchem-fragalysis-2/maxwin/BulkDock/SCRATCH/220456/C65179-P100

>  <ref_pdb>  (60) 
d0472a

>  <ref_mols>  (60) 
d0160a,d0472a

>  <original SMILES>  (60) 
O=C(N[C@H]1CCC12CNC2)c1ccc(-c2ccncc2)nc1

>  <alias>  (60) 
None

>  <tags>  (60) 
['DF curated INTERESTING', 'Knitwork impure merge', 'AC curated INTERESTING', 'Fragmenstein placed', 'Green Site/RNA tunnel merge']

>  <fragmenstein_outcome>  (60) 
too moved

>  <csv_name>  (60) 
RdRp_knitwork_green_site_rna_tunnel_impure_split4000_batch005.csv

>  <HIPPO Pose ID>  (60) 
65179

>  <SLURM_JOB_NAME>  (60) 
BulkDock.place:Flavi_NS5_RdRp:RdRp_knitwork_green_site_rna_tunnel_impure_split4000_batch005

>  <fragmenstein_runtime>  (60) 
8.245188

>  <fragmenstein_error>  (60) 
None

>  <SLURM_JOB_ID>  (60) 
220456

>  <inchikey>  (60) 
UIYHLUVSYDHDET-HNNXBMFYSA-N

$$$$
CCDQLSZZRRFIMQ-KWQFWETISA-N
     RDKit          3D

 18 19  0  0  0  0  0  0  0  0999 V2000
  -18.5536  -45.1670  -22.9736 C   0  0  0  0  0  0  0  0  0  0  0  0
  -17.2864  -45.2070  -22.1234 C   0  0  1  0  0  0  0  0  0  0  0  0
  -16.7503  -43.8102  -21.7850 C   0  0  0  0  0  0  0  0  0  0  0  0
  -16.2117  -43.0608  -22.9945 C   0  0  0  0  0  0  0  0  0  0  0  0
  -16.4920  -43.3046  -24.1001 O   0  0  0  0  0  0  0  0  0  0  0  0
  -15.3486  -41.9115  -22.4052 N   0  0  0  0  0  0  0  0  0  0  0  0
  -14.7691  -40.8389  -23.0142 C   0  0  0  0  0  0  0  0  0  0  0  0
  -13.9354  -39.8757  -22.3986 C   0  0  0  0  0  0  0  0  0  0  0  0
  -13.5328  -38.9283  -23.2511 N   0  0  0  0  0  0  0  0  0  0  0  0
  -14.1158  -39.3069  -24.4096 N   0  0  0  0  0  0  0  0  0  0  0  0
  -14.8654  -40.4329  -24.3208 C   0  0  0  0  0  0  0  0  0  0  0  0
  -15.5686  -40.8895  -25.4576 C   0  0  0  0  0  0  0  0  0  0  0  0
  -16.1112  -41.0958  -26.4610 N   0  0  0  0  0  0  0  0  0  0  0  0
  -17.5056  -46.0459  -20.8485 C   0  0  2  0  0  0  0  0  0  0  0  0
  -18.6025  -45.5508  -19.9115 C   0  0  0  0  0  0  0  0  0  0  0  0
  -18.1152  -46.0187  -18.5645 C   0  0  0  0  0  0  0  0  0  0  0  0
  -16.6174  -45.8714  -18.6929 C   0  0  0  0  0  0  0  0  0  0  0  0
  -16.2895  -46.0674  -20.0728 O   0  0  0  0  0  0  0  0  0  0  0  0
  2  1  1  1
  2  3  1  0
  3  4  1  0
  4  5  2  0
  4  6  1  0
  6  7  1  0
  7  8  1  0
  8  9  2  0
  9 10  1  0
 10 11  1  0
 11 12  1  0
 12 13  3  0
  2 14  1  0
 14 15  1  1
 15 16  1  0
 16 17  1  0
 17 18  1  0
 11  7  2  0
 18 14  1  0
M  END
>  <energy_score>  (61) 
-33.97969

>  <name>  (61) 
CCDQLSZZRRFIMQ-KWQFWETISA-N

>  <distance_score>  (61) 
0.722332

>  <original ID>  (61) 
CCDQLSZZRRFIMQ-KWQFWETISA-N

>  <HIPPO Compound ID>  (61) 
22539

>  <exports>  (61) 
['/opt/xchem-fragalysis-2/maxwin/RdRp_FFF/curation/Curated_DF.sdf']

>  <fragmenstein_mode>  (61) 
expansion

>  <scratch_subdir>  (61) 
/opt/xchem-fragalysis-2/maxwin/BulkDock/SCRATCH/220451/C65443-P196

>  <ref_pdb>  (61) 
d0254a

>  <ref_mols>  (61) 
d0160a,d0254a

>  <original SMILES>  (61) 
C[C@@H](CC(=O)Nc1cn[nH]c1C#N)[C@@H]1CCCO1

>  <alias>  (61) 
None

>  <tags>  (61) 
['DF curated INTERESTING', 'Knitwork impure merge', 'AC curated INTERESTING', 'Fragmenstein placed', 'Green Site/RNA tunnel merge']

>  <fragmenstein_outcome>  (61) 
too moved

>  <csv_name>  (61) 
RdRp_knitwork_green_site_rna_tunnel_impure_split4000_batch000.csv

>  <HIPPO Pose ID>  (61) 
65443

>  <SLURM_JOB_NAME>  (61) 
BulkDock.place:Flavi_NS5_RdRp:RdRp_knitwork_green_site_rna_tunnel_impure_split4000_batch000

>  <fragmenstein_runtime>  (61) 
4.828158

>  <fragmenstein_error>  (61) 
None

>  <SLURM_JOB_ID>  (61) 
220451

>  <inchikey>  (61) 
CCDQLSZZRRFIMQ-KWQFWETISA-N

$$$$
JUSGTJATUSPCAX-LBPRGKRZSA-N
     RDKit          3D

 20 22  0  0  0  0  0  0  0  0999 V2000
  -16.1123  -45.3702  -22.6853 O   0  0  0  0  0  0  0  0  0  0  0  0
  -17.2778  -44.5707  -22.4180 S   0  0  0  0  0  0  0  0  0  0  0  0
  -18.5200  -44.7191  -23.1365 O   0  0  0  0  0  0  0  0  0  0  0  0
  -16.8078  -42.9593  -22.5633 N   0  0  0  0  0  0  0  0  0  0  0  0
  -15.4143  -42.6623  -22.1307 C   0  0  0  0  0  0  0  0  0  0  0  0
  -15.1685  -41.1591  -22.2044 C   0  0  2  0  0  0  0  0  0  0  0  0
  -15.0224  -40.6467  -23.6213 C   0  0  0  0  0  0  0  0  0  0  0  0
  -14.2986  -39.3500  -23.3903 C   0  0  0  0  0  0  0  0  0  0  0  0
  -13.4269  -39.6291  -22.1828 C   0  0  0  0  0  0  0  0  0  0  0  0
  -13.9491  -40.7981  -21.5383 O   0  0  0  0  0  0  0  0  0  0  0  0
  -17.6479  -44.9124  -20.7932 C   0  0  0  0  0  0  0  0  0  0  0  0
  -18.9257  -45.0971  -20.2576 C   0  0  0  0  0  0  0  0  0  0  0  0
  -18.8911  -45.2450  -18.9302 N   0  0  0  0  0  0  0  0  0  0  0  0
  -17.5777  -45.2002  -18.6357 N   0  0  0  0  0  0  0  0  0  0  0  0
  -17.1434  -45.1794  -17.2554 C   0  0  0  0  0  0  0  0  0  0  0  0
  -17.5099  -43.8670  -16.5371 C   0  0  0  0  0  0  0  0  0  0  0  0
  -18.2780  -44.2804  -15.2879 C   0  0  0  0  0  0  0  0  0  0  0  0
  -17.7954  -45.6911  -15.0044 C   0  0  0  0  0  0  0  0  0  0  0  0
  -17.7042  -46.3120  -16.3882 C   0  0  0  0  0  0  0  0  0  0  0  0
  -16.7812  -45.0334  -19.7300 C   0  0  0  0  0  0  0  0  0  0  0  0
  1  2  2  0
  2  3  2  0
  2  4  1  0
  4  5  1  0
  6  5  1  6
  6  7  1  0
  7  8  1  0
  8  9  1  0
  9 10  1  0
  2 11  1  0
 11 12  1  0
 12 13  2  0
 13 14  1  0
 14 15  1  0
 15 16  1  0
 16 17  1  0
 17 18  1  0
 18 19  1  0
 14 20  1  0
 10  6  1  0
 20 11  2  0
 19 15  1  0
M  END
>  <energy_score>  (62) 
-41.574015

>  <name>  (62) 
JUSGTJATUSPCAX-LBPRGKRZSA-N

>  <distance_score>  (62) 
0.877785

>  <original ID>  (62) 
JUSGTJATUSPCAX-LBPRGKRZSA-N

>  <HIPPO Compound ID>  (62) 
23189

>  <exports>  (62) 
['/opt/xchem-fragalysis-2/maxwin/BulkDock/OUTPUTS/RdRp_knitwork_primer_grip_n_pocket_pure_split1800_batch008_217042.sdf', '/opt/xchem-fragalysis-2/maxwin/BulkDock/OUTPUTS/RdRp_knitwork_primer_grip_n_pocket_pure_fragalysis.sdf', '/opt/xchem-fragalysis-2/maxwin/RdRp_FFF/curation/Curated_DF.sdf']

>  <fragmenstein_mode>  (62) 
expansion

>  <scratch_subdir>  (62) 
/opt/xchem-fragalysis-2/maxwin/BulkDock/SCRATCH/217042/C23189-P12

>  <ref_pdb>  (62) 
d0160a

>  <ref_mols>  (62) 
d0160a,d0254a

>  <original SMILES>  (62) 
O=S(=O)(NC[C@@H]1CCCO1)c1cnn(C2CCCC2)c1

>  <alias>  (62) 
None

>  <tags>  (62) 
['DF curated INTERESTING', 'Primer grip/N-pocket merge', 'AC curated INTERESTING', 'Knitwork pure merge', 'Fragmenstein placed', 'acceptable']

>  <fragmenstein_outcome>  (62) 
acceptable

>  <csv_name>  (62) 
RdRp_knitwork_primer_grip_n_pocket_pure_split1800_batch008.csv

>  <HIPPO Pose ID>  (62) 
66265

>  <SLURM_JOB_NAME>  (62) 
BulkDock.place:Flavi_NS5_RdRp:RdRp_knitwork_primer_grip_n_pocket_pure_split1800_batch008

>  <fragmenstein_runtime>  (62) 
8.494449

>  <fragmenstein_error>  (62) 
None

>  <SLURM_JOB_ID>  (62) 
217042

>  <inchikey>  (62) 
JUSGTJATUSPCAX-LBPRGKRZSA-N

$$$$
GEAOQYLHMSKZNR-ZDUSSCGKSA-N
     RDKit          3D

 22 24  0  0  0  0  0  0  0  0999 V2000
  -19.6208  -34.8527  -19.5885 C   0  0  0  0  0  0  0  0  0  0  0  0
  -19.0940  -34.4724  -20.7600 C   0  0  0  0  0  0  0  0  0  0  0  0
  -19.8538  -34.3799  -22.0409 C   0  0  0  0  0  0  0  0  0  0  0  0
  -19.4276  -35.4394  -22.9012 N   0  0  0  0  0  0  0  0  0  0  0  0
  -19.7731  -35.7335  -24.3695 C   0  0  0  0  0  0  0  0  0  0  0  0
  -20.5195  -35.2042  -25.0902 O   0  0  0  0  0  0  0  0  0  0  0  0
  -18.9902  -36.8838  -24.8918 C   0  0  0  0  0  0  0  0  0  0  0  0
  -17.6510  -37.0795  -24.6054 C   0  0  0  0  0  0  0  0  0  0  0  0
  -16.9685  -38.1467  -25.1937 C   0  0  0  0  0  0  0  0  0  0  0  0
  -17.6298  -39.0454  -26.0275 C   0  0  0  0  0  0  0  0  0  0  0  0
  -17.0448  -40.1920  -26.5608 N   0  0  0  0  0  0  0  0  0  0  0  0
  -17.7074  -41.4186  -26.1037 C   0  0  0  0  0  0  0  0  0  0  0  0
  -16.9049  -41.8315  -24.8733 C   0  0  0  0  0  0  0  0  0  0  0  0
  -15.4670  -41.3657  -25.1617 C   0  0  2  0  0  0  0  0  0  0  0  0
  -14.8134  -40.7766  -23.9428 C   0  0  0  0  0  0  0  0  0  0  0  0
  -14.7519  -41.2177  -22.6351 C   0  0  0  0  0  0  0  0  0  0  0  0
  -13.9522  -40.2745  -21.9639 C   0  0  0  0  0  0  0  0  0  0  0  0
  -13.5376  -39.2973  -22.7728 N   0  0  0  0  0  0  0  0  0  0  0  0
  -14.0220  -39.6600  -23.9717 N   0  0  0  0  0  0  0  0  0  0  0  0
  -15.6057  -40.4310  -26.3897 C   0  0  0  0  0  0  0  0  0  0  0  0
  -18.9285  -38.8245  -26.3430 N   0  0  0  0  0  0  0  0  0  0  0  0
  -19.5759  -37.7717  -25.7715 C   0  0  0  0  0  0  0  0  0  0  0  0
  1  2  2  0
  2  3  1  0
  3  4  1  0
  4  5  1  0
  5  6  2  0
  5  7  1  0
  7  8  2  0
  8  9  1  0
  9 10  2  0
 10 11  1  0
 11 12  1  0
 12 13  1  0
 13 14  1  0
 14 15  1  1
 15 16  2  0
 16 17  1  0
 17 18  2  0
 18 19  1  0
 14 20  1  0
 10 21  1  0
 21 22  2  0
 22  7  1  0
 20 11  1  0
 19 15  1  0
M  END
>  <energy_score>  (63) 
-53.57873

>  <name>  (63) 
GEAOQYLHMSKZNR-ZDUSSCGKSA-N

>  <distance_score>  (63) 
0.91179

>  <original ID>  (63) 
GEAOQYLHMSKZNR-ZDUSSCGKSA-N

>  <HIPPO Compound ID>  (63) 
18620

>  <exports>  (63) 
['/opt/xchem-fragalysis-2/maxwin/BulkDock/OUTPUTS/RdRp_knitwork_primer_grip_n_pocket_pure_fragalysis.sdf']

>  <fragmenstein_mode>  (63) 
expansion

>  <scratch_subdir>  (63) 
/opt/xchem-fragalysis-2/maxwin/BulkDock/SCRATCH/217965/C67085-P113

>  <ref_pdb>  (63) 
d0160a

>  <ref_mols>  (63) 
d0160a,d0191a

>  <original SMILES>  (63) 
C=CCNC(=O)c1ccc(N2CC[C@H](c3ccn[nH]3)C2)nc1

>  <alias>  (63) 
None

>  <tags>  (63) 
['Primer grip/N-pocket merge', 'Fragmenstein pure merge', 'AC curated INTERESTING', 'Knitwork pure merge', 'Fragmenstein placed', 'Green Site/RNA tunnel merge', 'acceptable']

>  <fragmenstein_outcome>  (63) 
acceptable

>  <csv_name>  (63) 
green_site_rna_tunnel_fstein_bulkdock_input_split1000_batch000.csv

>  <HIPPO Pose ID>  (63) 
67085

>  <SLURM_JOB_NAME>  (63) 
BulkDock.place:Flavi_NS5_RdRp:green_site_rna_tunnel_fstein_bulkdock_input_split1000_batch000

>  <fragmenstein_runtime>  (63) 
3.233842

>  <fragmenstein_error>  (63) 
None

>  <SLURM_JOB_ID>  (63) 
217965

>  <inchikey>  (63) 
GEAOQYLHMSKZNR-ZDUSSCGKSA-N

$$$$
FURJNGPDIFHZDK-JTQLQIEISA-N
     RDKit          3D

 21 23  0  0  0  0  0  0  0  0999 V2000
  -21.0292  -37.1344  -22.0493 C   0  0  0  0  0  0  0  0  0  0  0  0
  -21.2531  -36.5579  -23.3718 N   0  0  0  0  0  0  0  0  0  0  0  0
  -19.9971  -35.6924  -24.0773 S   0  0  0  0  0  0  0  0  0  0  0  0
  -20.5843  -34.9344  -25.1604 O   0  0  0  0  0  0  0  0  0  0  0  0
  -19.2499  -35.0593  -23.0159 O   0  0  0  0  0  0  0  0  0  0  0  0
  -19.0182  -36.9502  -24.8089 C   0  0  0  0  0  0  0  0  0  0  0  0
  -17.6852  -37.1155  -24.4944 C   0  0  0  0  0  0  0  0  0  0  0  0
  -16.9713  -38.1393  -25.1196 C   0  0  0  0  0  0  0  0  0  0  0  0
  -17.6021  -39.0123  -26.0082 C   0  0  0  0  0  0  0  0  0  0  0  0
  -16.9968  -40.1388  -26.5628 N   0  0  0  0  0  0  0  0  0  0  0  0
  -17.6543  -41.3830  -26.1449 C   0  0  0  0  0  0  0  0  0  0  0  0
  -16.8741  -41.8116  -24.9060 C   0  0  0  0  0  0  0  0  0  0  0  0
  -15.4347  -41.3346  -25.1635 C   0  0  2  0  0  0  0  0  0  0  0  0
  -14.7962  -40.7760  -23.9236 C   0  0  0  0  0  0  0  0  0  0  0  0
  -14.7528  -41.2417  -22.6241 C   0  0  0  0  0  0  0  0  0  0  0  0
  -13.9502  -40.3190  -21.9276 C   0  0  0  0  0  0  0  0  0  0  0  0
  -13.5161  -39.3325  -22.7147 N   0  0  0  0  0  0  0  0  0  0  0  0
  -13.9990  -39.6635  -23.9222 N   0  0  0  0  0  0  0  0  0  0  0  0
  -15.5592  -40.3672  -26.3684 C   0  0  0  0  0  0  0  0  0  0  0  0
  -18.8978  -38.7995  -26.3478 N   0  0  0  0  0  0  0  0  0  0  0  0
  -19.5792  -37.7959  -25.7368 C   0  0  0  0  0  0  0  0  0  0  0  0
  1  2  1  0
  2  3  1  0
  3  4  2  0
  3  5  2  0
  3  6  1  0
  6  7  2  0
  7  8  1  0
  8  9  2  0
  9 10  1  0
 10 11  1  0
 11 12  1  0
 12 13  1  0
 13 14  1  1
 14 15  2  0
 15 16  1  0
 16 17  2  0
 17 18  1  0
 13 19  1  0
  9 20  1  0
 20 21  2  0
 21  6  1  0
 19 10  1  0
 18 14  1  0
M  END
>  <energy_score>  (64) 
-19.109484

>  <name>  (64) 
FURJNGPDIFHZDK-JTQLQIEISA-N

>  <distance_score>  (64) 
0.904184

>  <original ID>  (64) 
FURJNGPDIFHZDK-JTQLQIEISA-N

>  <HIPPO Compound ID>  (64) 
18861

>  <exports>  (64) 
['/opt/xchem-fragalysis-2/maxwin/BulkDock/OUTPUTS/RdRp_knitwork_primer_grip_n_pocket_pure_split1800_batch008_217042.sdf', '/opt/xchem-fragalysis-2/maxwin/BulkDock/OUTPUTS/RdRp_knitwork_primer_grip_n_pocket_pure_fragalysis.sdf']

>  <fragmenstein_mode>  (64) 
expansion

>  <scratch_subdir>  (64) 
/opt/xchem-fragalysis-2/maxwin/BulkDock/SCRATCH/217042/C18861-P12

>  <ref_pdb>  (64) 
d0160a

>  <ref_mols>  (64) 
d0160a,d0191a

>  <original SMILES>  (64) 
CNS(=O)(=O)c1ccc(N2CC[C@H](c3ccn[nH]3)C2)nc1

>  <alias>  (64) 
None

>  <tags>  (64) 
['Primer grip/N-pocket merge', 'AC curated INTERESTING', 'Knitwork pure merge', 'Fragmenstein placed', 'acceptable']

>  <fragmenstein_outcome>  (64) 
acceptable

>  <csv_name>  (64) 
RdRp_knitwork_primer_grip_n_pocket_pure_split1800_batch008.csv

>  <HIPPO Pose ID>  (64) 
67138

>  <SLURM_JOB_NAME>  (64) 
BulkDock.place:Flavi_NS5_RdRp:RdRp_knitwork_primer_grip_n_pocket_pure_split1800_batch008

>  <fragmenstein_runtime>  (64) 
2.698165

>  <fragmenstein_error>  (64) 
None

>  <SLURM_JOB_ID>  (64) 
217042

>  <inchikey>  (64) 
FURJNGPDIFHZDK-JTQLQIEISA-N

$$$$
HGFITXIOQBKAJS-WVDJIFEKSA-N
     RDKit          3D

 21 23  0  0  0  0  0  0  0  0999 V2000
  -19.3118  -35.0121  -22.8888 C   0  0  0  0  0  0  0  0  0  0  0  0
  -20.2544  -35.9636  -24.0489 S   0  0  1  0  0  0  0  0  0  0  0  0
  -21.2122  -36.8303  -23.2102 N   0  0  0  0  0  0  0  0  0  0  0  0
  -20.6799  -35.0546  -25.0961 O   0  0  0  0  0  0  0  0  0  0  0  0
  -19.1366  -37.0882  -24.8212 C   0  0  0  0  0  0  0  0  0  0  0  0
  -17.7875  -37.1650  -24.5374 C   0  0  0  0  0  0  0  0  0  0  0  0
  -17.0212  -38.1448  -25.1781 C   0  0  0  0  0  0  0  0  0  0  0  0
  -17.6121  -39.0563  -26.0547 C   0  0  0  0  0  0  0  0  0  0  0  0
  -16.9624  -40.1597  -26.6013 N   0  0  0  0  0  0  0  0  0  0  0  0
  -17.5888  -41.4269  -26.2015 C   0  0  0  0  0  0  0  0  0  0  0  0
  -16.8241  -41.8301  -24.9446 C   0  0  0  0  0  0  0  0  0  0  0  0
  -15.3944  -41.3146  -25.1775 C   0  0  2  0  0  0  0  0  0  0  0  0
  -14.7884  -40.7399  -23.9298 C   0  0  0  0  0  0  0  0  0  0  0  0
  -14.7556  -41.1984  -22.6278 C   0  0  0  0  0  0  0  0  0  0  0  0
  -13.9747  -40.2606  -21.9268 C   0  0  0  0  0  0  0  0  0  0  0  0
  -13.5472  -39.2700  -22.7129 N   0  0  0  0  0  0  0  0  0  0  0  0
  -14.0075  -39.6166  -23.9250 N   0  0  0  0  0  0  0  0  0  0  0  0
  -15.5238  -40.3478  -26.3828 C   0  0  0  0  0  0  0  0  0  0  0  0
  -18.9159  -38.9088  -26.3869 N   0  0  0  0  0  0  0  0  0  0  0  0
  -19.6488  -37.9572  -25.7591 C   0  0  0  0  0  0  0  0  0  0  0  0
  -21.8790  -37.3399  -23.7927 H   0  0  0  0  0  0  0  0  0  0  0  0
  2  1  1  1
  2  3  2  0
  2  4  2  0
  2  5  1  0
  5  6  2  0
  6  7  1  0
  7  8  2  0
  8  9  1  0
  9 10  1  0
 10 11  1  0
 11 12  1  0
 12 13  1  1
 13 14  2  0
 14 15  1  0
 15 16  2  0
 16 17  1  0
 12 18  1  0
  8 19  1  0
 19 20  2  0
 20  5  1  0
 18  9  1  0
 17 13  1  0
  3 21  1  0
M  END
>  <energy_score>  (65) 
-12.728477

>  <name>  (65) 
HGFITXIOQBKAJS-WVDJIFEKSA-N

>  <distance_score>  (65) 
0.965491

>  <original ID>  (65) 
HGFITXIOQBKAJS-WVDJIFEKSA-N

>  <HIPPO Compound ID>  (65) 
18883

>  <exports>  (65) 
['/opt/xchem-fragalysis-2/maxwin/BulkDock/OUTPUTS/RdRp_knitwork_primer_grip_n_pocket_pure_split1800_batch008_217042.sdf', '/opt/xchem-fragalysis-2/maxwin/BulkDock/OUTPUTS/RdRp_knitwork_primer_grip_n_pocket_pure_fragalysis.sdf']

>  <fragmenstein_mode>  (65) 
expansion

>  <scratch_subdir>  (65) 
/opt/xchem-fragalysis-2/maxwin/BulkDock/SCRATCH/217042/C18883-P12

>  <ref_pdb>  (65) 
d0160a

>  <ref_mols>  (65) 
d0160a,d0191a

>  <original SMILES>  (65) 
[H]N=[S@](C)(=O)c1ccc(N2CC[C@H](c3ccn[nH]3)C2)nc1

>  <alias>  (65) 
None

>  <tags>  (65) 
['Primer grip/N-pocket merge', 'AC curated INTERESTING', 'Knitwork pure merge', 'Fragmenstein placed', 'acceptable']

>  <fragmenstein_outcome>  (65) 
acceptable

>  <csv_name>  (65) 
RdRp_knitwork_primer_grip_n_pocket_pure_split1800_batch008.csv

>  <HIPPO Pose ID>  (65) 
67148

>  <SLURM_JOB_NAME>  (65) 
BulkDock.place:Flavi_NS5_RdRp:RdRp_knitwork_primer_grip_n_pocket_pure_split1800_batch008

>  <fragmenstein_runtime>  (65) 
2.539211

>  <fragmenstein_error>  (65) 
None

>  <SLURM_JOB_ID>  (65) 
217042

>  <inchikey>  (65) 
HGFITXIOQBKAJS-WVDJIFEKSA-N

$$$$
TYJCAHRAGOYIEV-NSHDSACASA-N
     RDKit          3D

 18 20  0  0  0  0  0  0  0  0999 V2000
  -16.1592  -37.0781  -22.5415 O   0  0  0  0  0  0  0  0  0  0  0  0
  -17.4845  -36.7086  -22.8878 C   0  0  0  0  0  0  0  0  0  0  0  0
  -17.9181  -37.3442  -24.1809 C   0  0  0  0  0  0  0  0  0  0  0  0
  -19.1522  -37.0235  -24.7252 C   0  0  0  0  0  0  0  0  0  0  0  0
  -19.5647  -37.7126  -25.8456 C   0  0  0  0  0  0  0  0  0  0  0  0
  -18.8387  -38.6673  -26.4734 N   0  0  0  0  0  0  0  0  0  0  0  0
  -17.6383  -39.0050  -25.9468 C   0  0  0  0  0  0  0  0  0  0  0  0
  -16.9869  -40.1015  -26.5259 N   0  0  0  0  0  0  0  0  0  0  0  0
  -17.6190  -41.3651  -26.1313 C   0  0  0  0  0  0  0  0  0  0  0  0
  -16.8531  -41.7975  -24.8870 C   0  0  0  0  0  0  0  0  0  0  0  0
  -15.4160  -41.3148  -25.1324 C   0  0  2  0  0  0  0  0  0  0  0  0
  -14.7493  -40.8677  -23.8612 C   0  0  0  0  0  0  0  0  0  0  0  0
  -14.6440  -41.4776  -22.6263 C   0  0  0  0  0  0  0  0  0  0  0  0
  -13.8372  -40.6193  -21.8566 C   0  0  0  0  0  0  0  0  0  0  0  0
  -13.4548  -39.5382  -22.5380 N   0  0  0  0  0  0  0  0  0  0  0  0
  -14.0148  -39.7163  -23.7462 N   0  0  0  0  0  0  0  0  0  0  0  0
  -15.5455  -40.2657  -26.2678 C   0  0  0  0  0  0  0  0  0  0  0  0
  -17.1592  -38.3301  -24.8222 C   0  0  0  0  0  0  0  0  0  0  0  0
  1  2  1  0
  2  3  1  0
  3  4  2  0
  4  5  1  0
  5  6  2  0
  6  7  1  0
  7  8  1  0
  8  9  1  0
  9 10  1  0
 10 11  1  0
 11 12  1  1
 12 13  2  0
 13 14  1  0
 14 15  2  0
 15 16  1  0
 11 17  1  0
  7 18  2  0
 18  3  1  0
 17  8  1  0
 16 12  1  0
M  END
>  <energy_score>  (66) 
-16.636826

>  <name>  (66) 
TYJCAHRAGOYIEV-NSHDSACASA-N

>  <distance_score>  (66) 
0.887864

>  <original ID>  (66) 
TYJCAHRAGOYIEV-NSHDSACASA-N

>  <HIPPO Compound ID>  (66) 
18884

>  <exports>  (66) 
['/opt/xchem-fragalysis-2/maxwin/BulkDock/OUTPUTS/RdRp_knitwork_primer_grip_n_pocket_pure_split1800_batch008_217042.sdf', '/opt/xchem-fragalysis-2/maxwin/BulkDock/OUTPUTS/RdRp_knitwork_primer_grip_n_pocket_pure_fragalysis.sdf']

>  <fragmenstein_mode>  (66) 
expansion

>  <scratch_subdir>  (66) 
/opt/xchem-fragalysis-2/maxwin/BulkDock/SCRATCH/217042/C18884-P12

>  <ref_pdb>  (66) 
d0160a

>  <ref_mols>  (66) 
d0160a,d0191a

>  <original SMILES>  (66) 
OCc1ccnc(N2CC[C@H](c3ccn[nH]3)C2)c1

>  <alias>  (66) 
None

>  <tags>  (66) 
['Primer grip/N-pocket merge', 'AC curated INTERESTING', 'Knitwork pure merge', 'Fragmenstein placed', 'acceptable']

>  <fragmenstein_outcome>  (66) 
acceptable

>  <csv_name>  (66) 
RdRp_knitwork_primer_grip_n_pocket_pure_split1800_batch008.csv

>  <HIPPO Pose ID>  (66) 
67152

>  <SLURM_JOB_NAME>  (66) 
BulkDock.place:Flavi_NS5_RdRp:RdRp_knitwork_primer_grip_n_pocket_pure_split1800_batch008

>  <fragmenstein_runtime>  (66) 
2.459838

>  <fragmenstein_error>  (66) 
None

>  <SLURM_JOB_ID>  (66) 
217042

>  <inchikey>  (66) 
TYJCAHRAGOYIEV-NSHDSACASA-N

$$$$
OMJITSFZDIWXMI-JTQLQIEISA-N
     RDKit          3D

 20 22  0  0  0  0  0  0  0  0999 V2000
  -21.2023  -36.6226  -23.0718 C   0  0  0  0  0  0  0  0  0  0  0  0
  -20.0575  -35.7198  -24.0813 S   0  0  0  0  0  0  0  0  0  0  0  0
  -19.2205  -34.9373  -23.1948 O   0  0  0  0  0  0  0  0  0  0  0  0
  -20.7933  -35.0880  -25.1606 O   0  0  0  0  0  0  0  0  0  0  0  0
  -19.0567  -36.9658  -24.8164 C   0  0  0  0  0  0  0  0  0  0  0  0
  -17.7196  -37.1103  -24.5076 C   0  0  0  0  0  0  0  0  0  0  0  0
  -16.9943  -38.1298  -25.1283 C   0  0  0  0  0  0  0  0  0  0  0  0
  -17.6172  -39.0152  -26.0097 C   0  0  0  0  0  0  0  0  0  0  0  0
  -17.0031  -40.1372  -26.5614 N   0  0  0  0  0  0  0  0  0  0  0  0
  -17.6505  -41.3879  -26.1476 C   0  0  0  0  0  0  0  0  0  0  0  0
  -16.8672  -41.8127  -24.9095 C   0  0  0  0  0  0  0  0  0  0  0  0
  -15.4316  -41.3246  -25.1668 C   0  0  2  0  0  0  0  0  0  0  0  0
  -14.7963  -40.7640  -23.9267 C   0  0  0  0  0  0  0  0  0  0  0  0
  -14.7490  -41.2310  -22.6278 C   0  0  0  0  0  0  0  0  0  0  0  0
  -13.9492  -40.3056  -21.9317 C   0  0  0  0  0  0  0  0  0  0  0  0
  -13.5208  -39.3164  -22.7184 N   0  0  0  0  0  0  0  0  0  0  0  0
  -14.0044  -39.6478  -23.9253 N   0  0  0  0  0  0  0  0  0  0  0  0
  -15.5636  -40.3549  -26.3690 C   0  0  0  0  0  0  0  0  0  0  0  0
  -18.9154  -38.8161  -26.3489 N   0  0  0  0  0  0  0  0  0  0  0  0
  -19.6059  -37.8147  -25.7490 C   0  0  0  0  0  0  0  0  0  0  0  0
  1  2  1  0
  2  3  2  0
  2  4  2  0
  2  5  1  0
  5  6  2  0
  6  7  1  0
  7  8  2  0
  8  9  1  0
  9 10  1  0
 10 11  1  0
 11 12  1  0
 12 13  1  1
 13 14  2  0
 14 15  1  0
 15 16  2  0
 16 17  1  0
 12 18  1  0
  8 19  1  0
 19 20  2  0
 20  5  1  0
 18  9  1  0
 17 13  1  0
M  END
>  <energy_score>  (67) 
-36.250209

>  <name>  (67) 
OMJITSFZDIWXMI-JTQLQIEISA-N

>  <distance_score>  (67) 
0.90966

>  <original ID>  (67) 
OMJITSFZDIWXMI-JTQLQIEISA-N

>  <HIPPO Compound ID>  (67) 
18885

>  <exports>  (67) 
['/opt/xchem-fragalysis-2/maxwin/BulkDock/OUTPUTS/RdRp_knitwork_primer_grip_n_pocket_pure_split1800_batch008_217042.sdf', '/opt/xchem-fragalysis-2/maxwin/BulkDock/OUTPUTS/RdRp_knitwork_primer_grip_n_pocket_pure_fragalysis.sdf']

>  <fragmenstein_mode>  (67) 
expansion

>  <scratch_subdir>  (67) 
/opt/xchem-fragalysis-2/maxwin/BulkDock/SCRATCH/217042/C18885-P12

>  <ref_pdb>  (67) 
d0160a

>  <ref_mols>  (67) 
d0160a,d0191a

>  <original SMILES>  (67) 
CS(=O)(=O)c1ccc(N2CC[C@H](c3ccn[nH]3)C2)nc1

>  <alias>  (67) 
None

>  <tags>  (67) 
['Primer grip/N-pocket merge', 'AC curated INTERESTING', 'Knitwork pure merge', 'Fragmenstein placed', 'acceptable']

>  <fragmenstein_outcome>  (67) 
acceptable

>  <csv_name>  (67) 
RdRp_knitwork_primer_grip_n_pocket_pure_split1800_batch008.csv

>  <HIPPO Pose ID>  (67) 
67155

>  <SLURM_JOB_NAME>  (67) 
BulkDock.place:Flavi_NS5_RdRp:RdRp_knitwork_primer_grip_n_pocket_pure_split1800_batch008

>  <fragmenstein_runtime>  (67) 
2.489466

>  <fragmenstein_error>  (67) 
None

>  <SLURM_JOB_ID>  (67) 
217042

>  <inchikey>  (67) 
OMJITSFZDIWXMI-JTQLQIEISA-N

$$$$
SFXBVCJTOODOJM-OAHLLOKOSA-N
     RDKit          3D

 21 22  0  0  0  0  0  0  0  0999 V2000
  -18.6394  -44.4269  -23.8330 C   0  0  0  0  0  0  0  0  0  0  0  0
  -17.3572  -44.2714  -23.0861 C   0  0  0  0  0  0  0  0  0  0  0  0
  -16.3055  -43.4683  -23.3424 C   0  0  0  0  0  0  0  0  0  0  0  0
  -16.1494  -42.4730  -24.4000 C   0  0  0  0  0  0  0  0  0  0  0  0
  -16.4144  -42.7443  -25.7337 C   0  0  0  0  0  0  0  0  0  0  0  0
  -16.2063  -41.7442  -26.6777 C   0  0  0  0  0  0  0  0  0  0  0  0
  -15.7272  -40.5091  -26.2656 C   0  0  0  0  0  0  0  0  0  0  0  0
  -15.4594  -40.3326  -24.9206 C   0  0  0  0  0  0  0  0  0  0  0  0
  -15.6466  -41.2864  -23.9819 N   0  0  0  0  0  0  0  0  0  0  0  0
  -17.2807  -45.0999  -21.8389 C   0  0  0  0  0  0  0  0  0  0  0  0
  -17.4901  -46.2319  -21.8038 O   0  0  0  0  0  0  0  0  0  0  0  0
  -16.8949  -44.0428  -20.7186 N   0  0  0  0  0  0  0  0  0  0  0  0
  -16.8831  -44.3399  -19.4328 C   0  0  0  0  0  0  0  0  0  0  0  0
  -16.4214  -44.1184  -18.8178 C   0  0  2  0  0  0  0  0  0  0  0  0
  -17.2595  -44.1374  -17.2604 C   0  0  0  0  0  0  0  0  0  0  0  0
  -18.1866  -43.4154  -16.9373 O   0  0  0  0  0  0  0  0  0  0  0  0
  -16.7822  -45.0964  -16.4403 O   0  0  0  0  0  0  0  0  0  0  0  0
  -15.7280  -42.5358  -18.6865 C   0  0  0  0  0  0  0  0  0  0  0  0
  -14.6038  -42.6731  -17.6932 C   0  0  0  0  0  0  0  0  0  0  0  0
  -14.0348  -43.9726  -17.8045 O   0  0  0  0  0  0  0  0  0  0  0  0
  -14.8551  -44.8273  -18.5950 C   0  0  0  0  0  0  0  0  0  0  0  0
  1  2  1  0
  2  3  2  3
  3  4  1  0
  4  5  2  0
  5  6  1  0
  6  7  2  0
  7  8  1  0
  8  9  2  0
  2 10  1  0
 10 11  2  0
 10 12  1  0
 12 13  1  0
 14 12  1  6
 14 15  1  0
 15 16  2  0
 15 17  1  0
 14 18  1  0
 18 19  1  0
 19 20  1  0
 20 21  1  0
  9  4  1  0
 21 14  1  0
M  END
>  <energy_score>  (68) 
463.581154

>  <name>  (68) 
SFXBVCJTOODOJM-OAHLLOKOSA-N

>  <distance_score>  (68) 
1.958785

>  <original ID>  (68) 
SFXBVCJTOODOJM-OAHLLOKOSA-N

>  <HIPPO Compound ID>  (68) 
24657

>  <exports>  (68) 
['/opt/xchem-fragalysis-2/maxwin/BulkDock/OUTPUTS/RdRp_knitwork_primer_grip_n_pocket_pure_split1800_batch010_217044.sdf', '/opt/xchem-fragalysis-2/maxwin/BulkDock/OUTPUTS/RdRp_knitwork_primer_grip_n_pocket_pure_fragalysis.sdf']

>  <fragmenstein_mode>  (68) 
expansion

>  <scratch_subdir>  (68) 
/opt/xchem-fragalysis-2/maxwin/BulkDock/SCRATCH/217910/C67908-P151

>  <ref_pdb>  (68) 
d0254a

>  <ref_mols>  (68) 
d0254a,d0472a

>  <original SMILES>  (68) 
CC(=Cc1ccccn1)C(=O)N(C)[C@]1(C(=O)O)CCOC1

>  <alias>  (68) 
None

>  <tags>  (68) 
['Primer grip/N-pocket merge', 'Fragmenstein pure merge', 'AC curated INTERESTING', 'Knitwork pure merge', 'Fragmenstein placed', 'Green Site/RNA tunnel merge', 'acceptable']

>  <fragmenstein_outcome>  (68) 
acceptable

>  <csv_name>  (68) 
green_site_rna_tunnel_fstein_bulkdock_input_split1000_batch001.csv

>  <HIPPO Pose ID>  (68) 
67908

>  <SLURM_JOB_NAME>  (68) 
BulkDock.place:Flavi_NS5_RdRp:green_site_rna_tunnel_fstein_bulkdock_input_split1000_batch001

>  <fragmenstein_runtime>  (68) 
3.580361

>  <fragmenstein_error>  (68) 
None

>  <SLURM_JOB_ID>  (68) 
217910

>  <inchikey>  (68) 
SFXBVCJTOODOJM-OAHLLOKOSA-N

$$$$
JVFQXDPMNDGBGU-QMMMGPOBSA-N
     RDKit          3D

 15 16  0  0  0  0  0  0  0  0999 V2000
  -19.1233  -44.6380  -24.4248 C   0  0  0  0  0  0  0  0  0  0  0  0
  -17.9994  -43.9449  -23.7699 C   0  0  0  0  0  0  0  0  0  0  0  0
  -17.5912  -43.8880  -22.4568 C   0  0  0  0  0  0  0  0  0  0  0  0
  -16.4456  -43.1499  -22.3298 N   0  0  0  0  0  0  0  0  0  0  0  0
  -16.1257  -42.7944  -23.5573 C   0  0  0  0  0  0  0  0  0  0  0  0
  -14.9198  -42.0664  -24.0225 C   0  0  0  0  0  0  0  0  0  0  0  0
  -15.2692  -40.9107  -24.8560 N   0  0  0  0  0  0  0  0  0  0  0  0
  -15.7466  -39.7902  -24.0252 C   0  0  1  0  0  0  0  0  0  0  0  0
  -14.5600  -39.0836  -23.3494 C   0  0  0  0  0  0  0  0  0  0  0  0
  -16.6296  -38.8685  -24.8361 C   0  0  0  0  0  0  0  0  0  0  0  0
  -16.9442  -38.8231  -26.1859 C   0  0  0  0  0  0  0  0  0  0  0  0
  -17.9564  -37.9386  -26.5552 N   0  0  0  0  0  0  0  0  0  0  0  0
  -18.3261  -37.2627  -25.4898 C   0  0  0  0  0  0  0  0  0  0  0  0
  -17.5682  -37.6757  -24.0190 S   0  0  0  0  0  0  0  0  0  0  0  0
  -17.0839  -43.1924  -24.4513 N   0  0  0  0  0  0  0  0  0  0  0  0
  1  2  1  0
  2  3  2  0
  3  4  1  0
  4  5  2  0
  5  6  1  0
  6  7  1  0
  7  8  1  0
  8  9  1  6
  8 10  1  0
 10 11  2  0
 11 12  1  0
 12 13  2  0
 13 14  1  0
  5 15  1  0
 15  2  1  0
 14 10  1  0
M  END
>  <energy_score>  (69) 
-52.200277

>  <name>  (69) 
JVFQXDPMNDGBGU-QMMMGPOBSA-N

>  <distance_score>  (69) 
0.961717

>  <original ID>  (69) 
JVFQXDPMNDGBGU-QMMMGPOBSA-N

>  <HIPPO Compound ID>  (69) 
11581

>  <exports>  (69) 
['/opt/xchem-fragalysis-2/maxwin/BulkDock/OUTPUTS/RdRp_knitwork_primer_grip_n_pocket_pure_split1800_batch013_217047.sdf', '/opt/xchem-fragalysis-2/maxwin/BulkDock/OUTPUTS/RdRp_knitwork_primer_grip_n_pocket_pure_fragalysis.sdf']

>  <fragmenstein_mode>  (69) 
expansion

>  <scratch_subdir>  (69) 
/opt/xchem-fragalysis-2/maxwin/BulkDock/SCRATCH/217047/C11581-P51

>  <ref_pdb>  (69) 
d0615b

>  <ref_mols>  (69) 
d0615b,z0103a

>  <original SMILES>  (69) 
Cc1cnc(CN[C@@H](C)c2cncs2)[nH]1

>  <alias>  (69) 
None

>  <tags>  (69) 
['Primer grip/N-pocket merge', 'AC curated INTERESTING', 'Knitwork pure merge', 'Fragmenstein placed', 'acceptable']

>  <fragmenstein_outcome>  (69) 
acceptable

>  <csv_name>  (69) 
RdRp_knitwork_primer_grip_n_pocket_pure_split1800_batch013.csv

>  <HIPPO Pose ID>  (69) 
68411

>  <SLURM_JOB_NAME>  (69) 
BulkDock.place:Flavi_NS5_RdRp:RdRp_knitwork_primer_grip_n_pocket_pure_split1800_batch013

>  <fragmenstein_runtime>  (69) 
2.995201

>  <fragmenstein_error>  (69) 
None

>  <SLURM_JOB_ID>  (69) 
217047

>  <inchikey>  (69) 
JVFQXDPMNDGBGU-QMMMGPOBSA-N

$$$$
PEQWBQJGCBBXLK-UHFFFAOYSA-N
     RDKit          3D

 22 23  0  0  0  0  0  0  0  0999 V2000
  -12.7079  -38.1372  -21.8619 C   0  0  0  0  0  0  0  0  0  0  0  0
  -12.7118  -39.5510  -21.8349 O   0  0  0  0  0  0  0  0  0  0  0  0
  -13.9910  -40.1258  -22.0761 C   0  0  0  0  0  0  0  0  0  0  0  0
  -14.4870  -39.8174  -23.5199 C   0  0  0  0  0  0  0  0  0  0  0  0
  -15.5810  -40.7525  -24.0162 N   0  0  0  0  0  0  0  0  0  0  0  0
  -15.4338  -39.8558  -25.2385 C   0  0  0  0  0  0  0  0  0  0  0  0
  -16.6221  -38.9517  -25.4465 C   0  0  0  0  0  0  0  0  0  0  0  0
  -17.2593  -38.6743  -26.6430 C   0  0  0  0  0  0  0  0  0  0  0  0
  -18.3449  -37.8149  -26.5802 N   0  0  0  0  0  0  0  0  0  0  0  0
  -18.4736  -37.3968  -25.3389 C   0  0  0  0  0  0  0  0  0  0  0  0
  -17.3654  -38.0366  -24.2029 S   0  0  0  0  0  0  0  0  0  0  0  0
  -15.1985  -42.2045  -23.8060 C   0  0  0  0  0  0  0  0  0  0  0  0
  -14.6277  -42.9493  -24.5116 O   0  0  0  0  0  0  0  0  0  0  0  0
  -15.7953  -42.6482  -22.4741 C   0  0  0  0  0  0  0  0  0  0  0  0
  -16.9579  -43.4703  -22.7258 N   0  0  0  0  0  0  0  0  0  0  0  0
  -17.3231  -44.5863  -22.0424 C   0  0  0  0  0  0  0  0  0  0  0  0
  -18.2843  -45.2321  -22.6680 N   0  0  0  0  0  0  0  0  0  0  0  0
  -18.5900  -44.4634  -23.7741 C   0  0  0  0  0  0  0  0  0  0  0  0
  -19.4611  -44.9132  -24.8473 C   0  0  0  0  0  0  0  0  0  0  0  0
  -20.0283  -44.1864  -25.6484 O   0  0  0  0  0  0  0  0  0  0  0  0
  -19.5033  -46.2648  -24.9283 O   0  0  0  0  0  0  0  0  0  0  0  0
  -17.8164  -43.3287  -23.7757 C   0  0  0  0  0  0  0  0  0  0  0  0
  1  2  1  0
  2  3  1  0
  3  4  1  0
  4  5  1  0
  5  6  1  0
  6  7  1  0
  7  8  2  0
  8  9  1  0
  9 10  2  0
 10 11  1  0
  5 12  1  0
 12 13  2  0
 12 14  1  0
 14 15  1  0
 15 16  1  0
 16 17  2  0
 17 18  1  0
 18 19  1  0
 19 20  2  0
 19 21  1  0
 18 22  2  0
 11  7  1  0
 22 15  1  0
M  END
>  <energy_score>  (70) 
6.589745

>  <name>  (70) 
PEQWBQJGCBBXLK-UHFFFAOYSA-N

>  <distance_score>  (70) 
1.588377

>  <original ID>  (70) 
PEQWBQJGCBBXLK-UHFFFAOYSA-N

>  <HIPPO Compound ID>  (70) 
13088

>  <exports>  (70) 
['/opt/xchem-fragalysis-2/maxwin/BulkDock/OUTPUTS/RdRp_knitwork_primer_grip_n_pocket_pure_fragalysis.sdf']

>  <fragmenstein_mode>  (70) 
expansion

>  <scratch_subdir>  (70) 
/opt/xchem-fragalysis-2/maxwin/BulkDock/SCRATCH/217914/C68616-P22

>  <ref_pdb>  (70) 
d0615b

>  <ref_mols>  (70) 
d0615b,z0103a

>  <original SMILES>  (70) 
COCCN(Cc1cncs1)C(=O)Cn1cnc(C(=O)O)c1

>  <alias>  (70) 
None

>  <tags>  (70) 
['Primer grip/N-pocket merge', 'Fragmenstein pure merge', 'Thumb Site 2 merge', 'AC curated INTERESTING', 'Knitwork pure merge', 'Fragmenstein placed', 'acceptable']

>  <fragmenstein_outcome>  (70) 
acceptable

>  <csv_name>  (70) 
thumb_site_2_fstein_bulkdock_input_split1000_batch000.csv

>  <HIPPO Pose ID>  (70) 
68616

>  <SLURM_JOB_NAME>  (70) 
BulkDock.place:Flavi_NS5_RdRp:thumb_site_2_fstein_bulkdock_input_split1000_batch000

>  <fragmenstein_runtime>  (70) 
8.932299

>  <fragmenstein_error>  (70) 
None

>  <SLURM_JOB_ID>  (70) 
217914

>  <inchikey>  (70) 
PEQWBQJGCBBXLK-UHFFFAOYSA-N

$$$$
VZHCCDLJUPHCRO-UHFFFAOYSA-N
     RDKit          3D

 25 26  0  0  0  0  0  0  0  0999 V2000
  -18.4141  -43.9684  -22.6228 C   0  0  0  0  0  0  0  0  0  0  0  0
  -17.8186  -43.7131  -21.2385 C   0  0  0  0  0  0  0  0  0  0  0  0
  -18.8933  -43.2350  -20.2626 C   0  0  0  0  0  0  0  0  0  0  0  0
  -17.1143  -44.9240  -20.6877 C   0  0  0  0  0  0  0  0  0  0  0  0
  -17.6258  -46.1963  -20.8274 N   0  0  0  0  0  0  0  0  0  0  0  0
  -16.8388  -47.0928  -20.1601 C   0  0  0  0  0  0  0  0  0  0  0  0
  -15.8287  -46.3994  -19.5452 C   0  0  0  0  0  0  0  0  0  0  0  0
  -15.9710  -45.0252  -19.8957 C   0  0  0  0  0  0  0  0  0  0  0  0
  -15.0963  -43.9344  -19.4420 C   0  0  0  0  0  0  0  0  0  0  0  0
  -14.9137  -43.7890  -18.2724 O   0  0  0  0  0  0  0  0  0  0  0  0
  -14.5519  -43.2457  -20.5592 N   0  0  0  0  0  0  0  0  0  0  0  0
  -13.5445  -42.2276  -20.6371 C   0  0  0  0  0  0  0  0  0  0  0  0
  -13.7514  -41.1649  -21.7502 C   0  0  0  0  0  0  0  0  0  0  0  0
  -15.0194  -40.3375  -22.0237 N   0  0  0  0  0  0  0  0  0  0  0  0
  -14.7694  -39.8828  -20.6049 C   0  0  0  0  0  0  0  0  0  0  0  0
  -15.6909  -38.6636  -20.3570 C   0  0  0  0  0  0  0  0  0  0  0  0
  -17.0565  -39.0336  -20.5504 O   0  0  0  0  0  0  0  0  0  0  0  0
  -14.8893  -39.6379  -23.2628 C   0  0  0  0  0  0  0  0  0  0  0  0
  -14.4619  -38.5390  -23.4972 O   0  0  0  0  0  0  0  0  0  0  0  0
  -15.4826  -40.3791  -24.4415 C   0  0  0  0  0  0  0  0  0  0  0  0
  -15.5365  -39.7352  -25.6835 C   0  0  0  0  0  0  0  0  0  0  0  0
  -16.1486  -40.3784  -26.7476 C   0  0  0  0  0  0  0  0  0  0  0  0
  -16.7132  -41.6012  -26.6597 N   0  0  0  0  0  0  0  0  0  0  0  0
  -16.6170  -42.2190  -25.4645 C   0  0  0  0  0  0  0  0  0  0  0  0
  -16.0318  -41.6567  -24.3387 C   0  0  0  0  0  0  0  0  0  0  0  0
  1  2  1  0
  2  3  1  0
  2  4  1  0
  4  5  1  0
  5  6  1  0
  6  7  2  0
  7  8  1  0
  8  9  1  0
  9 10  2  0
  9 11  1  0
 11 12  1  0
 12 13  1  0
 13 14  1  0
 14 15  1  0
 15 16  1  0
 16 17  1  0
 14 18  1  0
 18 19  2  0
 18 20  1  0
 20 21  2  0
 21 22  1  0
 22 23  2  0
 23 24  1  0
 24 25  2  0
  8  4  2  0
 25 20  1  0
M  END
>  <energy_score>  (71) 
16.612887

>  <name>  (71) 
VZHCCDLJUPHCRO-UHFFFAOYSA-N

>  <distance_score>  (71) 
1.963433

>  <original ID>  (71) 
VZHCCDLJUPHCRO-UHFFFAOYSA-N

>  <HIPPO Compound ID>  (71) 
15286

>  <exports>  (71) 
['/opt/xchem-fragalysis-2/maxwin/BulkDock/OUTPUTS/RdRp_knitwork_primer_grip_n_pocket_pure_fragalysis.sdf']

>  <fragmenstein_mode>  (71) 
expansion

>  <scratch_subdir>  (71) 
/opt/xchem-fragalysis-2/maxwin/BulkDock/SCRATCH/217914/C68670-P27

>  <ref_pdb>  (71) 
d0160a

>  <ref_mols>  (71) 
d0160a,d0472a

>  <original SMILES>  (71) 
CC(C)c1[nH]ccc1C(=O)NCCN(CCO)C(=O)c1ccncc1

>  <alias>  (71) 
None

>  <tags>  (71) 
['Primer grip/N-pocket merge', 'Fragmenstein pure merge', 'Thumb Site 2 merge', 'AC curated INTERESTING', 'Knitwork pure merge', 'Fragmenstein placed', 'acceptable']

>  <fragmenstein_outcome>  (71) 
acceptable

>  <csv_name>  (71) 
thumb_site_2_fstein_bulkdock_input_split1000_batch000.csv

>  <HIPPO Pose ID>  (71) 
68670

>  <SLURM_JOB_NAME>  (71) 
BulkDock.place:Flavi_NS5_RdRp:thumb_site_2_fstein_bulkdock_input_split1000_batch000

>  <fragmenstein_runtime>  (71) 
3.881038

>  <fragmenstein_error>  (71) 
None

>  <SLURM_JOB_ID>  (71) 
217914

>  <inchikey>  (71) 
VZHCCDLJUPHCRO-UHFFFAOYSA-N

$$$$
VZHCCDLJUPHCRO-UHFFFAOYSA-N
     RDKit          3D

 25 26  0  0  0  0  0  0  0  0999 V2000
  -18.7016  -44.0654  -23.0488 C   0  0  0  0  0  0  0  0  0  0  0  0
  -18.2789  -43.9270  -21.5864 C   0  0  0  0  0  0  0  0  0  0  0  0
  -19.4921  -43.6616  -20.6945 C   0  0  0  0  0  0  0  0  0  0  0  0
  -17.5176  -45.1328  -21.1051 C   0  0  0  0  0  0  0  0  0  0  0  0
  -17.9570  -46.4169  -21.3390 N   0  0  0  0  0  0  0  0  0  0  0  0
  -17.1092  -47.3182  -20.7567 C   0  0  0  0  0  0  0  0  0  0  0  0
  -16.1490  -46.6173  -20.0751 C   0  0  0  0  0  0  0  0  0  0  0  0
  -16.3689  -45.2318  -20.3253 C   0  0  0  0  0  0  0  0  0  0  0  0
  -15.5301  -44.1416  -19.8202 C   0  0  0  0  0  0  0  0  0  0  0  0
  -15.4092  -44.0024  -18.6414 O   0  0  0  0  0  0  0  0  0  0  0  0
  -14.9077  -43.4643  -20.9046 N   0  0  0  0  0  0  0  0  0  0  0  0
  -13.8727  -42.4707  -20.9239 C   0  0  0  0  0  0  0  0  0  0  0  0
  -14.0334  -41.3378  -21.9739 C   0  0  0  0  0  0  0  0  0  0  0  0
  -15.2627  -40.4439  -22.1995 N   0  0  0  0  0  0  0  0  0  0  0  0
  -14.9979  -40.0822  -20.7552 C   0  0  0  0  0  0  0  0  0  0  0  0
  -15.8473  -38.8261  -20.4415 C   0  0  0  0  0  0  0  0  0  0  0  0
  -17.2316  -39.0997  -20.6551 O   0  0  0  0  0  0  0  0  0  0  0  0
  -15.0988  -39.6806  -23.3957 C   0  0  0  0  0  0  0  0  0  0  0  0
  -14.6244  -38.5897  -23.5663 O   0  0  0  0  0  0  0  0  0  0  0  0
  -15.7190  -40.3296  -24.6114 C   0  0  0  0  0  0  0  0  0  0  0  0
  -15.6186  -39.6851  -25.8491 C   0  0  0  0  0  0  0  0  0  0  0  0
  -16.2568  -40.2428  -26.9463 C   0  0  0  0  0  0  0  0  0  0  0  0
  -16.9832  -41.3806  -26.8975 N   0  0  0  0  0  0  0  0  0  0  0  0
  -17.0387  -41.9992  -25.6996 C   0  0  0  0  0  0  0  0  0  0  0  0
  -16.4410  -41.5204  -24.5424 C   0  0  0  0  0  0  0  0  0  0  0  0
  1  2  1  0
  2  3  1  0
  2  4  1  0
  4  5  1  0
  5  6  1  0
  6  7  2  0
  7  8  1  0
  8  9  1  0
  9 10  2  0
  9 11  1  0
 11 12  1  0
 12 13  1  0
 13 14  1  0
 14 15  1  0
 15 16  1  0
 16 17  1  0
 14 18  1  0
 18 19  2  0
 18 20  1  0
 20 21  2  0
 21 22  1  0
 22 23  2  0
 23 24  1  0
 24 25  2  0
  8  4  2  0
 25 20  1  0
M  END
>  <energy_score>  (72) 
16.770794

>  <name>  (72) 
VZHCCDLJUPHCRO-UHFFFAOYSA-N

>  <distance_score>  (72) 
1.835177

>  <original ID>  (72) 
VZHCCDLJUPHCRO-UHFFFAOYSA-N

>  <HIPPO Compound ID>  (72) 
15286

>  <exports>  (72) 
['/opt/xchem-fragalysis-2/maxwin/BulkDock/OUTPUTS/RdRp_knitwork_primer_grip_n_pocket_pure_fragalysis.sdf']

>  <fragmenstein_mode>  (72) 
expansion

>  <scratch_subdir>  (72) 
/opt/xchem-fragalysis-2/maxwin/BulkDock/SCRATCH/217914/C68680-P53

>  <ref_pdb>  (72) 
d0472a

>  <ref_mols>  (72) 
d0160a,d0472a

>  <original SMILES>  (72) 
CC(C)c1[nH]ccc1C(=O)NCCN(CCO)C(=O)c1ccncc1

>  <alias>  (72) 
None

>  <tags>  (72) 
['Primer grip/N-pocket merge', 'Fragmenstein pure merge', 'Thumb Site 2 merge', 'AC curated INTERESTING', 'Knitwork pure merge', 'Fragmenstein placed', 'acceptable']

>  <fragmenstein_outcome>  (72) 
acceptable

>  <csv_name>  (72) 
thumb_site_2_fstein_bulkdock_input_split1000_batch000.csv

>  <HIPPO Pose ID>  (72) 
68680

>  <SLURM_JOB_NAME>  (72) 
BulkDock.place:Flavi_NS5_RdRp:thumb_site_2_fstein_bulkdock_input_split1000_batch000

>  <fragmenstein_runtime>  (72) 
4.480051

>  <fragmenstein_error>  (72) 
None

>  <SLURM_JOB_ID>  (72) 
217914

>  <inchikey>  (72) 
VZHCCDLJUPHCRO-UHFFFAOYSA-N

$$$$
SCCOTQRDELFMAJ-UHFFFAOYSA-N
     RDKit          3D

 24 25  0  0  0  0  0  0  0  0999 V2000
  -16.4777  -38.6962  -19.2473 C   0  0  0  0  0  0  0  0  0  0  0  0
  -16.2248  -39.7151  -20.3643 C   0  0  0  0  0  0  0  0  0  0  0  0
  -15.8879  -41.0788  -19.8312 N   0  0  0  0  0  0  0  0  0  0  0  0
  -14.4458  -40.5847  -20.1004 C   0  0  0  0  0  0  0  0  0  0  0  0
  -13.7268  -41.1258  -21.3672 C   0  0  0  0  0  0  0  0  0  0  0  0
  -14.4752  -40.9838  -22.5867 N   0  0  0  0  0  0  0  0  0  0  0  0
  -14.4533  -39.9660  -23.5862 C   0  0  0  0  0  0  0  0  0  0  0  0
  -13.8626  -38.9270  -23.6291 O   0  0  0  0  0  0  0  0  0  0  0  0
  -15.3071  -40.3017  -24.7930 C   0  0  0  0  0  0  0  0  0  0  0  0
  -15.7663  -39.2580  -25.5995 C   0  0  0  0  0  0  0  0  0  0  0  0
  -16.5428  -39.5653  -26.7070 C   0  0  0  0  0  0  0  0  0  0  0  0
  -16.9038  -40.8202  -27.0575 N   0  0  0  0  0  0  0  0  0  0  0  0
  -16.4067  -41.8142  -26.2925 C   0  0  0  0  0  0  0  0  0  0  0  0
  -15.6118  -41.6135  -25.1730 C   0  0  0  0  0  0  0  0  0  0  0  0
  -16.0768  -42.3727  -20.3987 C   0  0  0  0  0  0  0  0  0  0  0  0
  -16.4713  -42.6981  -21.4872 O   0  0  0  0  0  0  0  0  0  0  0  0
  -15.8084  -43.4217  -19.3808 C   0  0  0  0  0  0  0  0  0  0  0  0
  -15.2123  -43.2635  -18.0892 C   0  0  0  0  0  0  0  0  0  0  0  0
  -15.1862  -44.4865  -17.4675 C   0  0  0  0  0  0  0  0  0  0  0  0
  -15.7761  -45.3869  -18.3054 N   0  0  0  0  0  0  0  0  0  0  0  0
  -16.1395  -44.7779  -19.4872 C   0  0  0  0  0  0  0  0  0  0  0  0
  -16.8270  -45.5353  -20.6034 C   0  0  0  0  0  0  0  0  0  0  0  0
  -16.5957  -47.0444  -20.5269 C   0  0  0  0  0  0  0  0  0  0  0  0
  -18.3297  -45.2555  -20.6139 C   0  0  0  0  0  0  0  0  0  0  0  0
  1  2  1  0
  2  3  1  0
  3  4  1  0
  4  5  1  0
  5  6  1  0
  6  7  1  0
  7  8  2  0
  7  9  1  0
  9 10  2  0
 10 11  1  0
 11 12  2  0
 12 13  1  0
 13 14  2  0
  3 15  1  0
 15 16  2  0
 15 17  1  0
 17 18  1  0
 18 19  2  0
 19 20  1  0
 20 21  1  0
 21 22  1  0
 22 23  1  0
 22 24  1  0
 14  9  1  0
 21 17  2  0
M  END
>  <energy_score>  (73) 
29.934597

>  <name>  (73) 
SCCOTQRDELFMAJ-UHFFFAOYSA-N

>  <distance_score>  (73) 
1.921593

>  <original ID>  (73) 
SCCOTQRDELFMAJ-UHFFFAOYSA-N

>  <HIPPO Compound ID>  (73) 
15419

>  <exports>  (73) 
['/opt/xchem-fragalysis-2/maxwin/BulkDock/OUTPUTS/RdRp_knitwork_primer_grip_n_pocket_pure_fragalysis.sdf']

>  <fragmenstein_mode>  (73) 
expansion

>  <scratch_subdir>  (73) 
/opt/xchem-fragalysis-2/maxwin/BulkDock/SCRATCH/217914/C68784-P45

>  <ref_pdb>  (73) 
d0472a

>  <ref_mols>  (73) 
d0160a,d0472a

>  <original SMILES>  (73) 
CCN(CCNC(=O)c1ccncc1)C(=O)c1cc[nH]c1C(C)C

>  <alias>  (73) 
None

>  <tags>  (73) 
['Primer grip/N-pocket merge', 'Fragmenstein pure merge', 'Thumb Site 2 merge', 'AC curated INTERESTING', 'Knitwork pure merge', 'Fragmenstein placed', 'acceptable']

>  <fragmenstein_outcome>  (73) 
acceptable

>  <csv_name>  (73) 
thumb_site_2_fstein_bulkdock_input_split1000_batch000.csv

>  <HIPPO Pose ID>  (73) 
68784

>  <SLURM_JOB_NAME>  (73) 
BulkDock.place:Flavi_NS5_RdRp:thumb_site_2_fstein_bulkdock_input_split1000_batch000

>  <fragmenstein_runtime>  (73) 
6.966821

>  <fragmenstein_error>  (73) 
None

>  <SLURM_JOB_ID>  (73) 
217914

>  <inchikey>  (73) 
SCCOTQRDELFMAJ-UHFFFAOYSA-N

$$$$
RHGXKFKNZMJLLI-UHFFFAOYSA-N
     RDKit          3D

 22 23  0  0  0  0  0  0  0  0999 V2000
   -9.4229  -38.9117  -25.1065 C   0  0  0  0  0  0  0  0  0  0  0  0
  -10.2158  -38.4008  -23.9794 O   0  0  0  0  0  0  0  0  0  0  0  0
   -9.9782  -38.5910  -22.5790 C   0  0  0  0  0  0  0  0  0  0  0  0
  -11.1359  -39.2045  -21.8099 C   0  0  0  0  0  0  0  0  0  0  0  0
  -12.0481  -38.2426  -21.2965 N   0  0  0  0  0  0  0  0  0  0  0  0
  -12.2153  -37.6786  -19.8601 C   0  0  0  0  0  0  0  0  0  0  0  0
  -11.5798  -37.8604  -18.8970 O   0  0  0  0  0  0  0  0  0  0  0  0
  -13.5197  -36.8522  -19.8796 C   0  0  0  0  0  0  0  0  0  0  0  0
  -14.7025  -37.7544  -19.7958 N   0  0  0  0  0  0  0  0  0  0  0  0
  -15.9619  -37.0218  -19.6579 C   0  0  0  0  0  0  0  0  0  0  0  0
  -14.7986  -38.6142  -20.9126 C   0  0  0  0  0  0  0  0  0  0  0  0
  -14.8826  -39.9866  -20.6989 C   0  0  0  0  0  0  0  0  0  0  0  0
  -15.0477  -40.8444  -21.7858 C   0  0  0  0  0  0  0  0  0  0  0  0
  -15.1411  -40.3204  -23.0754 C   0  0  0  0  0  0  0  0  0  0  0  0
  -15.6398  -41.0962  -24.2092 C   0  0  0  0  0  0  0  0  0  0  0  0
  -16.4635  -40.4771  -25.1544 C   0  0  0  0  0  0  0  0  0  0  0  0
  -17.1454  -41.2626  -26.0456 C   0  0  0  0  0  0  0  0  0  0  0  0
  -17.0588  -42.6046  -26.0819 N   0  0  0  0  0  0  0  0  0  0  0  0
  -16.1767  -43.1723  -25.2528 C   0  0  0  0  0  0  0  0  0  0  0  0
  -15.4547  -42.4744  -24.3080 C   0  0  0  0  0  0  0  0  0  0  0  0
  -14.9300  -38.9549  -23.1874 C   0  0  0  0  0  0  0  0  0  0  0  0
  -14.7483  -38.0940  -22.1555 N   0  0  0  0  0  0  0  0  0  0  0  0
  1  2  1  0
  2  3  1  0
  3  4  1  0
  4  5  1  0
  5  6  1  0
  6  7  2  0
  6  8  1  0
  8  9  1  0
  9 10  1  0
  9 11  1  0
 11 12  2  0
 12 13  1  0
 13 14  2  0
 14 15  1  0
 15 16  2  0
 16 17  1  0
 17 18  2  0
 18 19  1  0
 19 20  2  0
 14 21  1  0
 21 22  2  0
 22 11  1  0
 20 15  1  0
M  END
>  <energy_score>  (74) 
-10.188756

>  <name>  (74) 
RHGXKFKNZMJLLI-UHFFFAOYSA-N

>  <distance_score>  (74) 
1.912154

>  <original ID>  (74) 
RHGXKFKNZMJLLI-UHFFFAOYSA-N

>  <HIPPO Compound ID>  (74) 
26114

>  <exports>  (74) 
['/opt/xchem-fragalysis-2/maxwin/BulkDock/OUTPUTS/RdRp_knitwork_primer_grip_n_pocket_pure_fragalysis.sdf']

>  <fragmenstein_mode>  (74) 
expansion

>  <scratch_subdir>  (74) 
/opt/xchem-fragalysis-2/maxwin/BulkDock/SCRATCH/217914/C69115-P53

>  <ref_pdb>  (74) 
d0191a

>  <ref_mols>  (74) 
d0160a,d0191a

>  <original SMILES>  (74) 
COCCNC(=O)CN(C)c1ccc(-c2ccncc2)cn1

>  <alias>  (74) 
None

>  <tags>  (74) 
['Primer grip/N-pocket merge', 'Fragmenstein pure merge', 'Thumb Site 2 merge', 'AC curated INTERESTING', 'Knitwork pure merge', 'Fragmenstein placed', 'acceptable']

>  <fragmenstein_outcome>  (74) 
acceptable

>  <csv_name>  (74) 
thumb_site_2_fstein_bulkdock_input_split1000_batch000.csv

>  <HIPPO Pose ID>  (74) 
69115

>  <SLURM_JOB_NAME>  (74) 
BulkDock.place:Flavi_NS5_RdRp:thumb_site_2_fstein_bulkdock_input_split1000_batch000

>  <fragmenstein_runtime>  (74) 
10.175415

>  <fragmenstein_error>  (74) 
None

>  <SLURM_JOB_ID>  (74) 
217914

>  <inchikey>  (74) 
RHGXKFKNZMJLLI-UHFFFAOYSA-N

$$$$
JXVNKNVHNMVNRQ-UHFFFAOYSA-N
     RDKit          3D

 18 19  0  0  0  0  0  0  0  0999 V2000
  -15.5122  -39.6242  -26.7351 O   0  0  0  0  0  0  0  0  0  0  0  0
  -15.2446  -39.9941  -25.6053 C   0  0  0  0  0  0  0  0  0  0  0  0
  -14.3442  -39.3358  -24.8475 O   0  0  0  0  0  0  0  0  0  0  0  0
  -15.8355  -41.0867  -24.8850 C   0  0  0  0  0  0  0  0  0  0  0  0
  -16.9587  -41.8126  -25.2387 C   0  0  0  0  0  0  0  0  0  0  0  0
  -17.2690  -42.6792  -24.1658 C   0  0  0  0  0  0  0  0  0  0  0  0
  -18.7215  -43.6038  -24.0861 S   0  0  0  0  0  0  0  0  0  0  0  0
  -19.7473  -42.6010  -23.9709 O   0  0  0  0  0  0  0  0  0  0  0  0
  -18.6552  -44.5201  -25.2032 O   0  0  0  0  0  0  0  0  0  0  0  0
  -18.7009  -44.4854  -22.6602 N   0  0  0  0  0  0  0  0  0  0  0  0
  -17.7800  -45.6209  -22.7136 C   0  0  0  0  0  0  0  0  0  0  0  0
  -17.3523  -45.9931  -21.3418 C   0  0  0  0  0  0  0  0  0  0  0  0
  -16.9779  -45.1338  -20.4171 N   0  0  0  0  0  0  0  0  0  0  0  0
  -16.5857  -45.8283  -19.2929 C   0  0  0  0  0  0  0  0  0  0  0  0
  -16.6533  -47.1997  -19.3810 C   0  0  0  0  0  0  0  0  0  0  0  0
  -17.2062  -47.6398  -20.9270 S   0  0  0  0  0  0  0  0  0  0  0  0
  -16.2739  -42.5460  -23.2159 C   0  0  0  0  0  0  0  0  0  0  0  0
  -15.3976  -41.5921  -23.6779 N   0  0  0  0  0  0  0  0  0  0  0  0
  1  2  2  0
  2  3  1  0
  2  4  1  0
  4  5  2  0
  5  6  1  0
  6  7  1  0
  7  8  2  0
  7  9  2  0
  7 10  1  0
 10 11  1  0
 11 12  1  0
 12 13  2  0
 13 14  1  0
 14 15  2  0
 15 16  1  0
  6 17  2  0
 17 18  1  0
 18  4  1  0
 16 12  1  0
M  END
>  <energy_score>  (75) 
-246.41679

>  <name>  (75) 
JXVNKNVHNMVNRQ-UHFFFAOYSA-N

>  <distance_score>  (75) 
1.480138

>  <original ID>  (75) 
JXVNKNVHNMVNRQ-UHFFFAOYSA-N

>  <HIPPO Compound ID>  (75) 
10384

>  <exports>  (75) 
['/opt/xchem-fragalysis-2/maxwin/BulkDock/OUTPUTS/RdRp_knitwork_primer_grip_n_pocket_pure_fragalysis.sdf']

>  <fragmenstein_mode>  (75) 
expansion

>  <scratch_subdir>  (75) 
/opt/xchem-fragalysis-2/maxwin/BulkDock/SCRATCH/217914/C69116-P52

>  <ref_pdb>  (75) 
d0472a

>  <ref_mols>  (75) 
d0472a,d0615b

>  <original SMILES>  (75) 
O=C(O)c1cc(S(=O)(=O)NCc2nccs2)c[nH]1

>  <alias>  (75) 
None

>  <tags>  (75) 
['Primer grip/N-pocket merge', 'Fragmenstein pure merge', 'Thumb Site 2 merge', 'AC curated INTERESTING', 'Knitwork pure merge', 'Fragmenstein placed', 'acceptable']

>  <fragmenstein_outcome>  (75) 
acceptable

>  <csv_name>  (75) 
thumb_site_2_fstein_bulkdock_input_split1000_batch000.csv

>  <HIPPO Pose ID>  (75) 
69116

>  <SLURM_JOB_NAME>  (75) 
BulkDock.place:Flavi_NS5_RdRp:thumb_site_2_fstein_bulkdock_input_split1000_batch000

>  <fragmenstein_runtime>  (75) 
7.674559

>  <fragmenstein_error>  (75) 
None

>  <SLURM_JOB_ID>  (75) 
217914

>  <inchikey>  (75) 
JXVNKNVHNMVNRQ-UHFFFAOYSA-N

$$$$
XKQGFFJHKNLDLD-NSHDSACASA-N
     RDKit          3D

 23 26  0  0  0  0  0  0  0  0999 V2000
  -18.1397  -44.1209  -19.1650 O   0  0  0  0  0  0  0  0  0  0  0  0
  -18.0287  -45.0214  -19.9860 C   0  0  0  0  0  0  0  0  0  0  0  0
  -19.1158  -45.2589  -21.0206 C   0  0  0  0  0  0  0  0  0  0  0  0
  -18.4940  -45.1360  -22.3498 N   0  0  0  0  0  0  0  0  0  0  0  0
  -18.0384  -43.8950  -22.7588 C   0  0  0  0  0  0  0  0  0  0  0  0
  -17.3033  -43.6959  -23.8367 N   0  0  0  0  0  0  0  0  0  0  0  0
  -16.9589  -42.3451  -23.9334 C   0  0  0  0  0  0  0  0  0  0  0  0
  -15.9900  -41.9254  -24.9819 C   0  0  1  0  0  0  0  0  0  0  0  0
  -16.0229  -40.4605  -25.3417 C   0  0  0  0  0  0  0  0  0  0  0  0
  -15.1531  -39.8157  -24.2745 C   0  0  0  0  0  0  0  0  0  0  0  0
  -14.3082  -40.8382  -23.7201 O   0  0  0  0  0  0  0  0  0  0  0  0
  -14.5919  -42.0561  -24.4221 C   0  0  0  0  0  0  0  0  0  0  0  0
  -17.3636  -41.5060  -22.9812 N   0  0  0  0  0  0  0  0  0  0  0  0
  -18.2395  -42.3905  -21.8969 S   0  0  0  0  0  0  0  0  0  0  0  0
  -17.5403  -46.2412  -22.5657 C   0  0  0  0  0  0  0  0  0  0  0  0
  -16.9613  -46.7823  -21.2401 C   0  0  0  0  0  0  0  0  0  0  0  0
  -16.8760  -45.7887  -20.1882 N   0  0  0  0  0  0  0  0  0  0  0  0
  -15.6558  -45.1043  -19.9622 C   0  0  0  0  0  0  0  0  0  0  0  0
  -14.9373  -44.4964  -20.9892 C   0  0  0  0  0  0  0  0  0  0  0  0
  -13.8083  -43.7452  -20.6759 C   0  0  0  0  0  0  0  0  0  0  0  0
  -13.4067  -43.6703  -19.3529 C   0  0  0  0  0  0  0  0  0  0  0  0
  -14.0667  -44.2661  -18.3325 N   0  0  0  0  0  0  0  0  0  0  0  0
  -15.1952  -44.9349  -18.6621 C   0  0  0  0  0  0  0  0  0  0  0  0
  1  2  2  0
  2  3  1  0
  3  4  1  0
  4  5  1  0
  5  6  2  0
  6  7  1  0
  8  7  1  1
  8  9  1  0
  9 10  1  0
 10 11  1  0
 11 12  1  0
  7 13  2  0
 13 14  1  0
  4 15  1  0
 15 16  1  0
 16 17  1  0
 17 18  1  0
 18 19  2  0
 19 20  1  0
 20 21  2  0
 21 22  1  0
 22 23  2  0
 17  2  1  0
 23 18  1  0
 14  5  1  0
 12  8  1  0
M  END
>  <energy_score>  (76) 
-59.658355

>  <name>  (76) 
XKQGFFJHKNLDLD-NSHDSACASA-N

>  <distance_score>  (76) 
1.695289

>  <original ID>  (76) 
XKQGFFJHKNLDLD-NSHDSACASA-N

>  <HIPPO Compound ID>  (76) 
16185

>  <exports>  (76) 
['/opt/xchem-fragalysis-2/maxwin/BulkDock/OUTPUTS/RdRp_knitwork_primer_grip_n_pocket_pure_fragalysis.sdf']

>  <fragmenstein_mode>  (76) 
expansion

>  <scratch_subdir>  (76) 
/opt/xchem-fragalysis-2/maxwin/BulkDock/SCRATCH/217914/C69215-P59

>  <ref_pdb>  (76) 
d0254a

>  <ref_mols>  (76) 
d0254a,d0472a

>  <original SMILES>  (76) 
O=C1CN(c2nc([C@H]3CCOC3)ns2)CCN1c1cccnc1

>  <alias>  (76) 
None

>  <tags>  (76) 
['Primer grip/N-pocket merge', 'Fragmenstein pure merge', 'Thumb Site 2 merge', 'AC curated INTERESTING', 'Knitwork pure merge', 'Fragmenstein placed', 'acceptable']

>  <fragmenstein_outcome>  (76) 
acceptable

>  <csv_name>  (76) 
thumb_site_2_fstein_bulkdock_input_split1000_batch000.csv

>  <HIPPO Pose ID>  (76) 
69215

>  <SLURM_JOB_NAME>  (76) 
BulkDock.place:Flavi_NS5_RdRp:thumb_site_2_fstein_bulkdock_input_split1000_batch000

>  <fragmenstein_runtime>  (76) 
3.312843

>  <fragmenstein_error>  (76) 
None

>  <SLURM_JOB_ID>  (76) 
217914

>  <inchikey>  (76) 
XKQGFFJHKNLDLD-NSHDSACASA-N

$$$$
DLXWTSZYEMBMBI-JTQLQIEISA-N
     RDKit          3D

 22 23  0  0  0  0  0  0  0  0999 V2000
  -15.0461  -39.1987  -26.2959 C   0  0  0  0  0  0  0  0  0  0  0  0
  -15.8283  -40.4794  -26.4046 C   0  0  0  0  0  0  0  0  0  0  0  0
  -16.3680  -40.8352  -27.3739 O   0  0  0  0  0  0  0  0  0  0  0  0
  -15.6737  -41.1818  -25.0217 N   0  0  0  0  0  0  0  0  0  0  0  0
  -16.2311  -42.4103  -24.5351 C   0  0  0  0  0  0  0  0  0  0  0  0
  -17.6834  -42.1256  -24.1989 C   0  0  0  0  0  0  0  0  0  0  0  0
  -18.6053  -43.3230  -24.3659 C   0  0  2  0  0  0  0  0  0  0  0  0
  -20.0361  -42.8506  -24.2739 C   0  0  0  0  0  0  0  0  0  0  0  0
  -18.3635  -44.3345  -23.3712 N   0  0  0  0  0  0  0  0  0  0  0  0
  -18.6724  -44.3485  -21.8726 C   0  0  0  0  0  0  0  0  0  0  0  0
  -19.2428  -43.5780  -21.2102 O   0  0  0  0  0  0  0  0  0  0  0  0
  -18.0153  -45.5143  -21.3028 C   0  0  0  0  0  0  0  0  0  0  0  0
  -18.3911  -46.2767  -20.2139 C   0  0  0  0  0  0  0  0  0  0  0  0
  -16.9274  -46.8662  -19.4763 S   0  0  0  0  0  0  0  0  0  0  0  0
  -16.0695  -45.8429  -20.5677 C   0  0  0  0  0  0  0  0  0  0  0  0
  -14.9766  -44.9546  -20.1627 C   0  0  0  0  0  0  0  0  0  0  0  0
  -14.4551  -44.0439  -21.0846 C   0  0  0  0  0  0  0  0  0  0  0  0
  -13.5405  -43.0946  -20.6494 C   0  0  0  0  0  0  0  0  0  0  0  0
  -13.2004  -43.0555  -19.3076 C   0  0  0  0  0  0  0  0  0  0  0  0
  -13.7817  -43.9781  -18.4570 C   0  0  0  0  0  0  0  0  0  0  0  0
  -14.6372  -44.9462  -18.8498 N   0  0  0  0  0  0  0  0  0  0  0  0
  -16.7207  -45.7451  -21.7088 N   0  0  0  0  0  0  0  0  0  0  0  0
  1  2  1  0
  2  3  2  0
  2  4  1  0
  4  5  1  0
  5  6  1  0
  6  7  1  0
  7  8  1  1
  7  9  1  0
  9 10  1  0
 10 11  2  0
 10 12  1  0
 12 13  2  0
 13 14  1  0
 14 15  1  0
 15 16  1  0
 16 17  2  0
 17 18  1  0
 18 19  2  0
 19 20  1  0
 20 21  2  0
 15 22  2  0
 22 12  1  0
 21 16  1  0
M  END
>  <energy_score>  (77) 
-16.955955

>  <name>  (77) 
DLXWTSZYEMBMBI-JTQLQIEISA-N

>  <distance_score>  (77) 
1.767292

>  <original ID>  (77) 
DLXWTSZYEMBMBI-JTQLQIEISA-N

>  <HIPPO Compound ID>  (77) 
13838

>  <exports>  (77) 
['/opt/xchem-fragalysis-2/maxwin/BulkDock/OUTPUTS/RdRp_knitwork_primer_grip_n_pocket_pure_fragalysis.sdf']

>  <fragmenstein_mode>  (77) 
expansion

>  <scratch_subdir>  (77) 
/opt/xchem-fragalysis-2/maxwin/BulkDock/SCRATCH/217914/C69322-P224

>  <ref_pdb>  (77) 
d0472a

>  <ref_mols>  (77) 
d0472a,d0615b

>  <original SMILES>  (77) 
CC(=O)NCC[C@H](C)NC(=O)c1csc(-c2ccccn2)n1

>  <alias>  (77) 
None

>  <tags>  (77) 
['Primer grip/N-pocket merge', 'Fragmenstein pure merge', 'Thumb Site 2 merge', 'AC curated INTERESTING', 'Knitwork pure merge', 'Fragmenstein placed', 'acceptable']

>  <fragmenstein_outcome>  (77) 
acceptable

>  <csv_name>  (77) 
thumb_site_2_fstein_bulkdock_input_split1000_batch000.csv

>  <HIPPO Pose ID>  (77) 
69322

>  <SLURM_JOB_NAME>  (77) 
BulkDock.place:Flavi_NS5_RdRp:thumb_site_2_fstein_bulkdock_input_split1000_batch000

>  <fragmenstein_runtime>  (77) 
16.101909

>  <fragmenstein_error>  (77) 
None

>  <SLURM_JOB_ID>  (77) 
217914

>  <inchikey>  (77) 
DLXWTSZYEMBMBI-JTQLQIEISA-N

$$$$
FJIZSRBICNYNGK-UHFFFAOYSA-N
     RDKit          3D

 14 15  0  0  0  0  0  0  0  0999 V2000
  -16.3978  -46.4739  -21.0360 N   0  0  0  0  0  0  0  0  0  0  0  0
  -15.8545  -45.3369  -20.4469 C   0  0  0  0  0  0  0  0  0  0  0  0
  -15.9081  -44.1101  -21.0950 C   0  0  0  0  0  0  0  0  0  0  0  0
  -15.4613  -42.9733  -20.4261 C   0  0  0  0  0  0  0  0  0  0  0  0
  -15.5572  -41.7021  -21.0300 N   0  0  0  0  0  0  0  0  0  0  0  0
  -14.4667  -41.4244  -21.9887 C   0  0  0  0  0  0  0  0  0  0  0  0
  -13.1515  -41.0405  -21.3702 C   0  0  0  0  0  0  0  0  0  0  0  0
  -12.3035  -41.8411  -20.6387 C   0  0  0  0  0  0  0  0  0  0  0  0
  -11.2821  -41.0375  -20.2293 N   0  0  0  0  0  0  0  0  0  0  0  0
  -11.5216  -39.7942  -20.7408 C   0  0  0  0  0  0  0  0  0  0  0  0
  -12.6318  -39.7637  -21.4462 N   0  0  0  0  0  0  0  0  0  0  0  0
  -14.8998  -43.1309  -19.1618 C   0  0  0  0  0  0  0  0  0  0  0  0
  -14.8222  -44.4040  -18.6269 C   0  0  0  0  0  0  0  0  0  0  0  0
  -15.2815  -45.5113  -19.2436 N   0  0  0  0  0  0  0  0  0  0  0  0
  1  2  1  0
  2  3  2  0
  3  4  1  0
  4  5  1  0
  5  6  1  0
  6  7  1  0
  7  8  2  0
  8  9  1  0
  9 10  1  0
 10 11  2  0
  4 12  2  0
 12 13  1  0
 13 14  2  0
 14  2  1  0
 11  7  1  0
M  END
>  <energy_score>  (78) 
-17.539288

>  <name>  (78) 
FJIZSRBICNYNGK-UHFFFAOYSA-N

>  <distance_score>  (78) 
0.992544

>  <original ID>  (78) 
FJIZSRBICNYNGK-UHFFFAOYSA-N

>  <HIPPO Compound ID>  (78) 
12483

>  <exports>  (78) 
['/opt/xchem-fragalysis-2/maxwin/BulkDock/OUTPUTS/RdRp_knitwork_primer_grip_n_pocket_pure_split1800_batch006_217040.sdf', '/opt/xchem-fragalysis-2/maxwin/BulkDock/OUTPUTS/RdRp_knitwork_primer_grip_n_pocket_pure_fragalysis.sdf', '/opt/xchem-fragalysis-2/maxwin/RdRp_FFF/curation/Curated_DF.sdf']

>  <fragmenstein_mode>  (78) 
expansion

>  <scratch_subdir>  (78) 
/opt/xchem-fragalysis-2/maxwin/BulkDock/SCRATCH/217040/C12483-P42

>  <ref_pdb>  (78) 
d0472a

>  <ref_mols>  (78) 
d0472a,z0875c

>  <original SMILES>  (78) 
Nc1cc(NCc2c[nH]cn2)ccn1

>  <alias>  (78) 
None

>  <tags>  (78) 
['Primer grip/N-pocket merge', 'DF curated YES', 'AC curated INTERESTING', 'Knitwork pure merge', 'Fragmenstein placed', 'acceptable']

>  <fragmenstein_outcome>  (78) 
acceptable

>  <csv_name>  (78) 
RdRp_knitwork_primer_grip_n_pocket_pure_split1800_batch006.csv

>  <HIPPO Pose ID>  (78) 
69503

>  <SLURM_JOB_NAME>  (78) 
BulkDock.place:Flavi_NS5_RdRp:RdRp_knitwork_primer_grip_n_pocket_pure_split1800_batch006

>  <fragmenstein_runtime>  (78) 
1.807809

>  <fragmenstein_error>  (78) 
None

>  <SLURM_JOB_ID>  (78) 
217040

>  <inchikey>  (78) 
FJIZSRBICNYNGK-UHFFFAOYSA-N

$$$$
DVZVZQKDSZQBFI-UHFFFAOYSA-N
     RDKit          3D

 12 13  0  0  0  0  0  0  0  0999 V2000
  -15.6115  -40.5490  -25.9421 N   0  0  0  0  0  0  0  0  0  0  0  0
  -15.5737  -41.2194  -24.9975 C   0  0  0  0  0  0  0  0  0  0  0  0
  -15.6025  -42.0644  -23.8536 C   0  0  0  0  0  0  0  0  0  0  0  0
  -14.8566  -41.9491  -22.7026 C   0  0  0  0  0  0  0  0  0  0  0  0
  -15.2047  -43.0317  -21.8621 C   0  0  0  0  0  0  0  0  0  0  0  0
  -16.1800  -43.7764  -22.4983 C   0  0  0  0  0  0  0  0  0  0  0  0
  -16.8231  -44.9680  -22.0197 C   0  0  0  0  0  0  0  0  0  0  0  0
  -16.3663  -45.6238  -20.9714 N   0  0  0  0  0  0  0  0  0  0  0  0
  -17.1455  -46.7354  -20.7313 C   0  0  0  0  0  0  0  0  0  0  0  0
  -18.1817  -46.9253  -21.6149 C   0  0  0  0  0  0  0  0  0  0  0  0
  -18.2349  -45.6280  -22.7310 S   0  0  0  0  0  0  0  0  0  0  0  0
  -16.4118  -43.1675  -23.7164 N   0  0  0  0  0  0  0  0  0  0  0  0
  1  2  3  0
  2  3  1  0
  3  4  2  0
  4  5  1  0
  5  6  2  0
  6  7  1  0
  7  8  2  0
  8  9  1  0
  9 10  2  0
 10 11  1  0
  6 12  1  0
 12  3  1  0
 11  7  1  0
M  END
>  <energy_score>  (79) 
-60.776808

>  <name>  (79) 
DVZVZQKDSZQBFI-UHFFFAOYSA-N

>  <distance_score>  (79) 
0.902807

>  <original ID>  (79) 
DVZVZQKDSZQBFI-UHFFFAOYSA-N

>  <HIPPO Compound ID>  (79) 
25743

>  <exports>  (79) 
['/opt/xchem-fragalysis-2/maxwin/BulkDock/OUTPUTS/RdRp_knitwork_primer_grip_n_pocket_pure_split1800_batch012_217046.sdf', '/opt/xchem-fragalysis-2/maxwin/BulkDock/OUTPUTS/RdRp_knitwork_primer_grip_n_pocket_pure_fragalysis.sdf', '/opt/xchem-fragalysis-2/maxwin/RdRp_FFF/curation/Curated_DF.sdf']

>  <fragmenstein_mode>  (79) 
expansion

>  <scratch_subdir>  (79) 
/opt/xchem-fragalysis-2/maxwin/BulkDock/SCRATCH/217046/C25743-P42

>  <ref_pdb>  (79) 
d0472a

>  <ref_mols>  (79) 
d0472a,d0615b

>  <original SMILES>  (79) 
N#Cc1ccc(-c2nccs2)[nH]1

>  <alias>  (79) 
None

>  <tags>  (79) 
['DF curated INTERESTING', 'Primer grip/N-pocket merge', 'AC curated INTERESTING', 'Knitwork pure merge', 'Fragmenstein placed', 'acceptable']

>  <fragmenstein_outcome>  (79) 
acceptable

>  <csv_name>  (79) 
RdRp_knitwork_primer_grip_n_pocket_pure_split1800_batch012.csv

>  <HIPPO Pose ID>  (79) 
69558

>  <SLURM_JOB_NAME>  (79) 
BulkDock.place:Flavi_NS5_RdRp:RdRp_knitwork_primer_grip_n_pocket_pure_split1800_batch012

>  <fragmenstein_runtime>  (79) 
1.733986

>  <fragmenstein_error>  (79) 
None

>  <SLURM_JOB_ID>  (79) 
217046

>  <inchikey>  (79) 
DVZVZQKDSZQBFI-UHFFFAOYSA-N

$$$$
NBXAYGBEQBZCQN-TZMCWYRMSA-N
     RDKit          3D

 22 23  0  0  0  0  0  0  0  0999 V2000
  -14.2525  -43.2401  -23.5616 C   0  0  0  0  0  0  0  0  0  0  0  0
  -15.7127  -43.6519  -23.4446 C   0  0  1  0  0  0  0  0  0  0  0  0
  -16.1630  -44.2593  -22.2473 O   0  0  0  0  0  0  0  0  0  0  0  0
  -15.5080  -44.1101  -21.0733 C   0  0  0  0  0  0  0  0  0  0  0  0
  -14.8852  -42.9584  -20.6188 C   0  0  0  0  0  0  0  0  0  0  0  0
  -14.2301  -42.9777  -19.3909 C   0  0  0  0  0  0  0  0  0  0  0  0
  -14.2714  -44.1397  -18.6380 C   0  0  0  0  0  0  0  0  0  0  0  0
  -14.9030  -45.2692  -19.0228 N   0  0  0  0  0  0  0  0  0  0  0  0
  -15.5195  -45.2133  -20.2269 C   0  0  0  0  0  0  0  0  0  0  0  0
  -16.6010  -42.4775  -23.9092 C   0  0  0  0  0  0  0  0  0  0  0  0
  -17.1738  -41.7597  -23.1882 O   0  0  0  0  0  0  0  0  0  0  0  0
  -16.4625  -42.4495  -25.4581 N   0  0  0  0  0  0  0  0  0  0  0  0
  -16.9176  -41.4880  -26.4132 C   0  0  0  0  0  0  0  0  0  0  0  0
  -16.1194  -40.1685  -26.4321 C   0  0  2  0  0  0  0  0  0  0  0  0
  -14.7470  -40.2346  -25.7779 C   0  0  0  0  0  0  0  0  0  0  0  0
  -13.8748  -39.3786  -26.4881 O   0  0  0  0  0  0  0  0  0  0  0  0
  -16.9801  -39.0195  -25.9560 C   0  0  0  0  0  0  0  0  0  0  0  0
  -16.9624  -38.4615  -24.6789 C   0  0  0  0  0  0  0  0  0  0  0  0
  -17.8343  -37.4205  -24.3708 C   0  0  0  0  0  0  0  0  0  0  0  0
  -18.7218  -36.9902  -25.3430 C   0  0  0  0  0  0  0  0  0  0  0  0
  -18.7903  -37.5148  -26.5862 N   0  0  0  0  0  0  0  0  0  0  0  0
  -17.9082  -38.5036  -26.8520 C   0  0  0  0  0  0  0  0  0  0  0  0
  2  1  1  1
  2  3  1  0
  3  4  1  0
  4  5  2  0
  5  6  1  0
  6  7  2  0
  7  8  1  0
  8  9  2  0
  2 10  1  0
 10 11  2  0
 10 12  1  0
 12 13  1  0
 14 13  1  1
 14 15  1  0
 15 16  1  0
 14 17  1  0
 17 18  2  0
 18 19  1  0
 19 20  2  0
 20 21  1  0
 21 22  2  0
  9  4  1  0
 22 17  1  0
M  END
>  <energy_score>  (80) 
-8.154132

>  <name>  (80) 
NBXAYGBEQBZCQN-TZMCWYRMSA-N

>  <distance_score>  (80) 
0.922802

>  <original ID>  (80) 
NBXAYGBEQBZCQN-TZMCWYRMSA-N

>  <HIPPO Compound ID>  (80) 
13623

>  <exports>  (80) 
['/opt/xchem-fragalysis-2/maxwin/BulkDock/OUTPUTS/RdRp_knitwork_primer_grip_n_pocket_pure_split1800_batch006_217040.sdf', '/opt/xchem-fragalysis-2/maxwin/BulkDock/OUTPUTS/RdRp_knitwork_primer_grip_n_pocket_pure_fragalysis.sdf']

>  <fragmenstein_mode>  (80) 
expansion

>  <scratch_subdir>  (80) 
/opt/xchem-fragalysis-2/maxwin/BulkDock/SCRATCH/217040/C13623-P42

>  <ref_pdb>  (80) 
d0472a

>  <ref_mols>  (80) 
d0191a,d0472a

>  <original SMILES>  (80) 
C[C@@H](Oc1cccnc1)C(=O)NC[C@H](CO)c1cccnc1

>  <alias>  (80) 
None

>  <tags>  (80) 
['Primer grip/N-pocket merge', 'AC curated INTERESTING', 'Knitwork pure merge', 'Fragmenstein placed', 'acceptable']

>  <fragmenstein_outcome>  (80) 
acceptable

>  <csv_name>  (80) 
RdRp_knitwork_primer_grip_n_pocket_pure_split1800_batch006.csv

>  <HIPPO Pose ID>  (80) 
71583

>  <SLURM_JOB_NAME>  (80) 
BulkDock.place:Flavi_NS5_RdRp:RdRp_knitwork_primer_grip_n_pocket_pure_split1800_batch006

>  <fragmenstein_runtime>  (80) 
4.501978

>  <fragmenstein_error>  (80) 
None

>  <SLURM_JOB_ID>  (80) 
217040

>  <inchikey>  (80) 
NBXAYGBEQBZCQN-TZMCWYRMSA-N

$$$$
BNKLTCVOXDAGTQ-SSDOTTSWSA-N
     RDKit          3D

 21 23  0  0  0  0  0  0  0  0999 V2000
  -14.4036  -40.9739  -21.0613 C   0  0  0  0  0  0  0  0  0  0  0  0
  -15.2294  -42.0342  -21.8073 C   0  0  1  0  0  0  0  0  0  0  0  0
  -15.4809  -41.7435  -23.2068 N   0  0  0  0  0  0  0  0  0  0  0  0
  -15.1796  -40.5233  -23.6970 N   0  0  0  0  0  0  0  0  0  0  0  0
  -15.8881  -40.4979  -24.8334 C   0  0  0  0  0  0  0  0  0  0  0  0
  -16.5226  -39.1829  -25.3749 C   0  0  0  0  0  0  0  0  0  0  0  0
  -17.1744  -39.0281  -26.5745 C   0  0  0  0  0  0  0  0  0  0  0  0
  -17.9924  -37.9059  -26.6726 N   0  0  0  0  0  0  0  0  0  0  0  0
  -17.8323  -37.1868  -25.5792 C   0  0  0  0  0  0  0  0  0  0  0  0
  -16.7453  -37.7993  -24.4042 S   0  0  0  0  0  0  0  0  0  0  0  0
  -16.4297  -41.7072  -25.1840 N   0  0  0  0  0  0  0  0  0  0  0  0
  -16.3984  -42.3537  -24.0336 C   0  0  0  0  0  0  0  0  0  0  0  0
  -17.4256  -43.4543  -23.6374 C   0  0  0  0  0  0  0  0  0  0  0  0
  -17.7117  -44.0109  -22.3742 C   0  0  0  0  0  0  0  0  0  0  0  0
  -18.7801  -44.8560  -22.5206 C   0  0  0  0  0  0  0  0  0  0  0  0
  -19.1533  -44.8441  -23.8362 N   0  0  0  0  0  0  0  0  0  0  0  0
  -18.3255  -43.9981  -24.5195 C   0  0  0  0  0  0  0  0  0  0  0  0
  -14.6522  -43.4240  -21.5679 C   0  0  0  0  0  0  0  0  0  0  0  0
  -14.8366  -44.2569  -22.6060 F   0  0  0  0  0  0  0  0  0  0  0  0
  -13.3453  -43.3709  -21.2779 F   0  0  0  0  0  0  0  0  0  0  0  0
  -15.2525  -44.0129  -20.4963 F   0  0  0  0  0  0  0  0  0  0  0  0
  2  1  1  6
  2  3  1  0
  3  4  1  0
  4  5  2  0
  5  6  1  0
  6  7  2  0
  7  8  1  0
  8  9  2  0
  9 10  1  0
  5 11  1  0
 11 12  2  0
 12 13  1  0
 13 14  1  0
 14 15  2  0
 15 16  1  0
 16 17  1  0
  2 18  1  0
 18 19  1  0
 18 20  1  0
 18 21  1  0
 12  3  1  0
 17 13  2  0
 10  6  1  0
M  END
>  <energy_score>  (81) 
-90.37667

>  <name>  (81) 
BNKLTCVOXDAGTQ-SSDOTTSWSA-N

>  <distance_score>  (81) 
0.949781

>  <original ID>  (81) 
BNKLTCVOXDAGTQ-SSDOTTSWSA-N

>  <HIPPO Compound ID>  (81) 
12388

>  <exports>  (81) 
['/opt/xchem-fragalysis-2/maxwin/BulkDock/OUTPUTS/RdRp_knitwork_primer_grip_n_pocket_pure_split1800_batch012_217046.sdf', '/opt/xchem-fragalysis-2/maxwin/BulkDock/OUTPUTS/RdRp_knitwork_primer_grip_n_pocket_pure_fragalysis.sdf']

>  <fragmenstein_mode>  (81) 
expansion

>  <scratch_subdir>  (81) 
/opt/xchem-fragalysis-2/maxwin/BulkDock/SCRATCH/217046/C12388-P51

>  <ref_pdb>  (81) 
d0615b

>  <ref_mols>  (81) 
d0472a,d0615b

>  <original SMILES>  (81) 
C[C@@H](n1nc(-c2cncs2)nc1-c1cc[nH]c1)C(F)(F)F

>  <alias>  (81) 
None

>  <tags>  (81) 
['Primer grip/N-pocket merge', 'AC curated INTERESTING', 'Knitwork pure merge', 'Fragmenstein placed', 'acceptable']

>  <fragmenstein_outcome>  (81) 
acceptable

>  <csv_name>  (81) 
RdRp_knitwork_primer_grip_n_pocket_pure_split1800_batch012.csv

>  <HIPPO Pose ID>  (81) 
71621

>  <SLURM_JOB_NAME>  (81) 
BulkDock.place:Flavi_NS5_RdRp:RdRp_knitwork_primer_grip_n_pocket_pure_split1800_batch012

>  <fragmenstein_runtime>  (81) 
13.114839

>  <fragmenstein_error>  (81) 
None

>  <SLURM_JOB_ID>  (81) 
217046

>  <inchikey>  (81) 
BNKLTCVOXDAGTQ-SSDOTTSWSA-N

$$$$
VTQCVTAGCLFPPX-LBPRGKRZSA-N
     RDKit          3D

 20 22  0  0  0  0  0  0  0  0999 V2000
  -16.1897  -41.0062  -27.1030 C   0  0  0  0  0  0  0  0  0  0  0  0
  -15.8235  -40.0293  -25.9817 C   0  0  2  0  0  0  0  0  0  0  0  0
  -15.1769  -40.6864  -24.8332 N   0  0  0  0  0  0  0  0  0  0  0  0
  -15.7626  -41.7437  -24.1480 C   0  0  0  0  0  0  0  0  0  0  0  0
  -15.1292  -42.2497  -23.0058 C   0  0  0  0  0  0  0  0  0  0  0  0
  -15.5669  -43.3132  -22.2824 N   0  0  0  0  0  0  0  0  0  0  0  0
  -16.6960  -43.8957  -22.7412 C   0  0  0  0  0  0  0  0  0  0  0  0
  -17.1379  -45.0973  -22.1142 N   0  0  0  0  0  0  0  0  0  0  0  0
  -16.5426  -45.7055  -21.0202 C   0  0  0  0  0  0  0  0  0  0  0  0
  -17.2105  -46.8736  -20.7319 C   0  0  0  0  0  0  0  0  0  0  0  0
  -18.2397  -47.0023  -21.6825 C   0  0  0  0  0  0  0  0  0  0  0  0
  -18.1938  -45.8951  -22.4984 C   0  0  0  0  0  0  0  0  0  0  0  0
  -17.3726  -43.3634  -23.8352 C   0  0  0  0  0  0  0  0  0  0  0  0
  -16.9290  -42.2880  -24.5449 N   0  0  0  0  0  0  0  0  0  0  0  0
  -16.9336  -39.0579  -25.5705 C   0  0  0  0  0  0  0  0  0  0  0  0
  -18.2086  -39.1023  -26.1390 C   0  0  0  0  0  0  0  0  0  0  0  0
  -19.1580  -38.1493  -25.7757 C   0  0  0  0  0  0  0  0  0  0  0  0
  -18.8186  -37.1565  -24.8709 C   0  0  0  0  0  0  0  0  0  0  0  0
  -17.5434  -37.1686  -24.3467 C   0  0  0  0  0  0  0  0  0  0  0  0
  -16.6059  -38.0860  -24.6735 N   0  0  0  0  0  0  0  0  0  0  0  0
  2  1  1  6
  2  3  1  0
  3  4  1  0
  4  5  2  0
  5  6  1  0
  6  7  2  0
  7  8  1  0
  8  9  1  0
  9 10  2  0
 10 11  1  0
 11 12  2  0
  7 13  1  0
 13 14  2  0
  2 15  1  0
 15 16  2  0
 16 17  1  0
 17 18  2  0
 18 19  1  0
 19 20  2  0
 14  4  1  0
 20 15  1  0
 12  8  1  0
M  END
>  <energy_score>  (82) 
-22.235902

>  <name>  (82) 
VTQCVTAGCLFPPX-LBPRGKRZSA-N

>  <distance_score>  (82) 
0.975275

>  <original ID>  (82) 
VTQCVTAGCLFPPX-LBPRGKRZSA-N

>  <HIPPO Compound ID>  (82) 
11480

>  <exports>  (82) 
['/opt/xchem-fragalysis-2/maxwin/BulkDock/OUTPUTS/RdRp_knitwork_primer_grip_n_pocket_pure_split1800_batch013_217047.sdf', '/opt/xchem-fragalysis-2/maxwin/BulkDock/OUTPUTS/RdRp_knitwork_primer_grip_n_pocket_pure_fragalysis.sdf']

>  <fragmenstein_mode>  (82) 
expansion

>  <scratch_subdir>  (82) 
/opt/xchem-fragalysis-2/maxwin/BulkDock/SCRATCH/217047/C11480-P42

>  <ref_pdb>  (82) 
d0472a

>  <ref_mols>  (82) 
d0472a,d0615b

>  <original SMILES>  (82) 
C[C@H](Nc1cnc(-n2cccc2)cn1)c1ccccn1

>  <alias>  (82) 
None

>  <tags>  (82) 
['Primer grip/N-pocket merge', 'AC curated INTERESTING', 'Knitwork pure merge', 'Fragmenstein placed', 'acceptable']

>  <fragmenstein_outcome>  (82) 
acceptable

>  <csv_name>  (82) 
RdRp_knitwork_primer_grip_n_pocket_pure_split1800_batch013.csv

>  <HIPPO Pose ID>  (82) 
72491

>  <SLURM_JOB_NAME>  (82) 
BulkDock.place:Flavi_NS5_RdRp:RdRp_knitwork_primer_grip_n_pocket_pure_split1800_batch013

>  <fragmenstein_runtime>  (82) 
2.062602

>  <fragmenstein_error>  (82) 
None

>  <SLURM_JOB_ID>  (82) 
217047

>  <inchikey>  (82) 
VTQCVTAGCLFPPX-LBPRGKRZSA-N

$$$$
NMMXOIPTLDWKIW-CYBMUJFWSA-N
     RDKit          3D

 22 23  0  0  0  0  0  0  0  0999 V2000
  -17.3818  -44.8147  -22.9617 C   0  0  0  0  0  0  0  0  0  0  0  0
  -15.9952  -44.8403  -23.3262 O   0  0  0  0  0  0  0  0  0  0  0  0
  -15.4648  -43.9755  -24.2275 C   0  0  0  0  0  0  0  0  0  0  0  0
  -14.2738  -43.6758  -24.1885 O   0  0  0  0  0  0  0  0  0  0  0  0
  -16.3647  -43.4660  -25.3274 C   0  0  0  0  0  0  0  0  0  0  0  0
  -16.8289  -42.0281  -25.2053 C   0  0  0  0  0  0  0  0  0  0  0  0
  -15.7667  -41.0983  -24.7587 N   0  0  0  0  0  0  0  0  0  0  0  0
  -15.4549  -39.9871  -25.6993 C   0  0  0  0  0  0  0  0  0  0  0  0
  -16.5618  -38.9832  -25.8841 C   0  0  0  0  0  0  0  0  0  0  0  0
  -16.7498  -37.9361  -24.9846 C   0  0  0  0  0  0  0  0  0  0  0  0
  -17.8650  -37.1201  -25.0761 C   0  0  0  0  0  0  0  0  0  0  0  0
  -18.7561  -37.3570  -26.0983 C   0  0  0  0  0  0  0  0  0  0  0  0
  -18.5888  -38.3053  -27.0404 N   0  0  0  0  0  0  0  0  0  0  0  0
  -17.4856  -39.0861  -26.9168 C   0  0  0  0  0  0  0  0  0  0  0  0
  -15.7116  -40.8424  -23.0788 S   0  0  0  0  0  0  0  0  0  0  0  0
  -16.1092  -42.0936  -22.4684 O   0  0  0  0  0  0  0  0  0  0  0  0
  -16.4904  -39.6690  -22.7631 O   0  0  0  0  0  0  0  0  0  0  0  0
  -13.9799  -40.5668  -22.7337 C   0  0  2  0  0  0  0  0  0  0  0  0
  -13.5238  -41.2244  -21.4482 C   0  0  0  0  0  0  0  0  0  0  0  0
  -13.8864  -40.1862  -20.4115 C   0  0  0  0  0  0  0  0  0  0  0  0
  -13.6714  -38.9151  -21.0408 O   0  0  0  0  0  0  0  0  0  0  0  0
  -13.6616  -39.1146  -22.4635 C   0  0  0  0  0  0  0  0  0  0  0  0
  1  2  1  0
  2  3  1  0
  3  4  2  0
  3  5  1  0
  5  6  1  0
  6  7  1  0
  7  8  1  0
  8  9  1  0
  9 10  2  0
 10 11  1  0
 11 12  2  0
 12 13  1  0
 13 14  2  0
  7 15  1  0
 15 16  2  0
 15 17  2  0
 18 15  1  1
 18 19  1  0
 19 20  1  0
 20 21  1  0
 21 22  1  0
 14  9  1  0
 22 18  1  0
M  END
>  <energy_score>  (83) 
-39.252512

>  <name>  (83) 
NMMXOIPTLDWKIW-CYBMUJFWSA-N

>  <distance_score>  (83) 
0.944481

>  <original ID>  (83) 
NMMXOIPTLDWKIW-CYBMUJFWSA-N

>  <HIPPO Compound ID>  (83) 
10412

>  <exports>  (83) 
['/opt/xchem-fragalysis-2/maxwin/BulkDock/OUTPUTS/RdRp_knitwork_primer_grip_n_pocket_pure_split1800_batch001_217035.sdf', '/opt/xchem-fragalysis-2/maxwin/BulkDock/OUTPUTS/RdRp_knitwork_primer_grip_n_pocket_pure_fragalysis.sdf']

>  <fragmenstein_mode>  (83) 
expansion

>  <scratch_subdir>  (83) 
/opt/xchem-fragalysis-2/maxwin/BulkDock/SCRATCH/217035/C10412-P19

>  <ref_pdb>  (83) 
d0191a

>  <ref_mols>  (83) 
d0191a,d0254a

>  <original SMILES>  (83) 
COC(=O)CCN(Cc1cccnc1)S(=O)(=O)[C@@H]1CCOC1

>  <alias>  (83) 
None

>  <tags>  (83) 
['Primer grip/N-pocket merge', 'AC curated YES', 'AC curated INTERESTING', 'Knitwork pure merge', 'Fragmenstein placed', 'acceptable']

>  <fragmenstein_outcome>  (83) 
acceptable

>  <csv_name>  (83) 
RdRp_knitwork_primer_grip_n_pocket_pure_split1800_batch001.csv

>  <HIPPO Pose ID>  (83) 
72746

>  <SLURM_JOB_NAME>  (83) 
BulkDock.place:Flavi_NS5_RdRp:RdRp_knitwork_primer_grip_n_pocket_pure_split1800_batch001

>  <fragmenstein_runtime>  (83) 
9.805182

>  <fragmenstein_error>  (83) 
None

>  <SLURM_JOB_ID>  (83) 
217035

>  <inchikey>  (83) 
NMMXOIPTLDWKIW-CYBMUJFWSA-N

$$$$
DYUYMACNAFSKCY-AWEZNQCLSA-N
     RDKit          3D

 23 24  0  0  0  0  0  0  0  0999 V2000
  -17.6008  -42.3284  -26.4108 O   0  0  0  0  0  0  0  0  0  0  0  0
  -16.8121  -42.2679  -25.4766 C   0  0  0  0  0  0  0  0  0  0  0  0
  -16.5644  -43.3899  -24.5080 C   0  0  0  0  0  0  0  0  0  0  0  0
  -16.5441  -42.9278  -23.0657 C   0  0  0  0  0  0  0  0  0  0  0  0
  -15.9448  -43.9443  -22.1205 C   0  0  0  0  0  0  0  0  0  0  0  0
  -14.8492  -43.7190  -21.6064 O   0  0  0  0  0  0  0  0  0  0  0  0
  -16.6898  -45.1364  -21.7650 C   0  0  0  0  0  0  0  0  0  0  0  0
  -17.8632  -45.7034  -22.2281 C   0  0  0  0  0  0  0  0  0  0  0  0
  -18.0746  -46.9060  -21.5083 C   0  0  0  0  0  0  0  0  0  0  0  0
  -17.0621  -47.0214  -20.5860 C   0  0  0  0  0  0  0  0  0  0  0  0
  -16.2287  -45.9554  -20.7548 N   0  0  0  0  0  0  0  0  0  0  0  0
  -16.0155  -41.2115  -25.2035 O   0  0  0  0  0  0  0  0  0  0  0  0
  -16.0780  -40.1284  -26.1446 C   0  0  1  0  0  0  0  0  0  0  0  0
  -17.1802  -39.1628  -25.7836 C   0  0  0  0  0  0  0  0  0  0  0  0
  -17.2438  -38.5122  -24.5481 C   0  0  0  0  0  0  0  0  0  0  0  0
  -18.1839  -37.5080  -24.3532 C   0  0  0  0  0  0  0  0  0  0  0  0
  -19.0412  -37.1988  -25.3967 C   0  0  0  0  0  0  0  0  0  0  0  0
  -19.0212  -37.8132  -26.6025 N   0  0  0  0  0  0  0  0  0  0  0  0
  -18.0893  -38.7813  -26.7606 C   0  0  0  0  0  0  0  0  0  0  0  0
  -14.7605  -39.3696  -26.1407 C   0  0  0  0  0  0  0  0  0  0  0  0
  -14.3156  -39.1697  -24.8763 F   0  0  0  0  0  0  0  0  0  0  0  0
  -13.8178  -40.0471  -26.8239 F   0  0  0  0  0  0  0  0  0  0  0  0
  -14.9266  -38.1734  -26.7459 F   0  0  0  0  0  0  0  0  0  0  0  0
  1  2  2  0
  2  3  1  0
  3  4  1  0
  4  5  1  0
  5  6  2  0
  5  7  1  0
  7  8  2  0
  8  9  1  0
  9 10  2  0
 10 11  1  0
  2 12  1  0
 13 12  1  1
 13 14  1  0
 14 15  2  0
 15 16  1  0
 16 17  2  0
 17 18  1  0
 18 19  2  0
 13 20  1  0
 20 21  1  0
 20 22  1  0
 20 23  1  0
 11  7  1  0
 19 14  1  0
M  END
>  <energy_score>  (84) 
-43.309367

>  <name>  (84) 
DYUYMACNAFSKCY-AWEZNQCLSA-N

>  <distance_score>  (84) 
0.912804

>  <original ID>  (84) 
DYUYMACNAFSKCY-AWEZNQCLSA-N

>  <HIPPO Compound ID>  (84) 
13403

>  <exports>  (84) 
['/opt/xchem-fragalysis-2/maxwin/BulkDock/OUTPUTS/RdRp_knitwork_primer_grip_n_pocket_pure_split1800_batch006_217040.sdf', '/opt/xchem-fragalysis-2/maxwin/BulkDock/OUTPUTS/RdRp_knitwork_primer_grip_n_pocket_pure_fragalysis.sdf']

>  <fragmenstein_mode>  (84) 
expansion

>  <scratch_subdir>  (84) 
/opt/xchem-fragalysis-2/maxwin/BulkDock/SCRATCH/217040/C13403-P42

>  <ref_pdb>  (84) 
d0472a

>  <ref_mols>  (84) 
d0191a,d0472a

>  <original SMILES>  (84) 
O=C(CCC(=O)c1ccc[nH]1)O[C@@H](c1cccnc1)C(F)(F)F

>  <alias>  (84) 
None

>  <tags>  (84) 
['Primer grip/N-pocket merge', 'AC curated INTERESTING', 'Knitwork pure merge', 'Fragmenstein placed', 'acceptable']

>  <fragmenstein_outcome>  (84) 
acceptable

>  <csv_name>  (84) 
RdRp_knitwork_primer_grip_n_pocket_pure_split1800_batch006.csv

>  <HIPPO Pose ID>  (84) 
72914

>  <SLURM_JOB_NAME>  (84) 
BulkDock.place:Flavi_NS5_RdRp:RdRp_knitwork_primer_grip_n_pocket_pure_split1800_batch006

>  <fragmenstein_runtime>  (84) 
3.536513

>  <fragmenstein_error>  (84) 
None

>  <SLURM_JOB_ID>  (84) 
217040

>  <inchikey>  (84) 
DYUYMACNAFSKCY-AWEZNQCLSA-N

$$$$
IBGRYOWVMGBQTA-VCBZYWHSSA-N
     RDKit          3D

 22 24  0  0  0  0  0  0  0  0999 V2000
  -14.3483  -43.7709  -21.5395 C   0  0  0  0  0  0  0  0  0  0  0  0
  -14.9405  -44.0564  -22.9330 C   0  0  1  0  0  0  0  0  0  0  0  0
  -16.0001  -45.0827  -22.8480 N   0  0  0  0  0  0  0  0  0  0  0  0
  -17.2096  -44.7247  -22.0925 C   0  0  1  0  0  0  0  0  0  0  0  0
  -18.3846  -44.8734  -23.0543 C   0  0  0  0  0  0  0  0  0  0  0  0
  -17.4229  -45.6690  -20.8741 C   0  0  2  0  0  0  0  0  0  0  0  0
  -18.5438  -45.2204  -19.9425 C   0  0  0  0  0  0  0  0  0  0  0  0
  -18.0950  -45.7663  -18.6121 C   0  0  0  0  0  0  0  0  0  0  0  0
  -16.5979  -45.5845  -18.6882 C   0  0  0  0  0  0  0  0  0  0  0  0
  -16.2301  -45.7280  -20.0645 O   0  0  0  0  0  0  0  0  0  0  0  0
  -15.3007  -42.8273  -23.7455 C   0  0  0  0  0  0  0  0  0  0  0  0
  -16.1223  -42.8968  -24.8714 C   0  0  0  0  0  0  0  0  0  0  0  0
  -16.5402  -41.7340  -25.5208 C   0  0  0  0  0  0  0  0  0  0  0  0
  -16.1054  -40.4691  -25.1089 C   0  0  0  0  0  0  0  0  0  0  0  0
  -16.8188  -39.2433  -25.5087 C   0  0  0  0  0  0  0  0  0  0  0  0
  -16.9750  -38.1951  -24.5877 C   0  0  0  0  0  0  0  0  0  0  0  0
  -17.8239  -37.1366  -24.8536 C   0  0  0  0  0  0  0  0  0  0  0  0
  -18.5328  -37.1614  -26.0326 C   0  0  0  0  0  0  0  0  0  0  0  0
  -18.4128  -38.1150  -26.9754 N   0  0  0  0  0  0  0  0  0  0  0  0
  -17.5268  -39.1113  -26.7046 C   0  0  0  0  0  0  0  0  0  0  0  0
  -15.1122  -40.4346  -24.1260 C   0  0  0  0  0  0  0  0  0  0  0  0
  -14.7413  -41.5854  -23.4384 C   0  0  0  0  0  0  0  0  0  0  0  0
  2  1  1  1
  2  3  1  0
  3  4  1  0
  4  5  1  6
  4  6  1  0
  6  7  1  1
  7  8  1  0
  8  9  1  0
  9 10  1  0
  2 11  1  0
 11 12  2  0
 12 13  1  0
 13 14  2  0
 14 15  1  0
 15 16  2  0
 16 17  1  0
 17 18  2  0
 18 19  1  0
 19 20  2  0
 14 21  1  0
 21 22  2  0
 10  6  1  0
 22 11  1  0
 20 15  1  0
M  END
>  <energy_score>  (85) 
-33.881129

>  <name>  (85) 
IBGRYOWVMGBQTA-VCBZYWHSSA-N

>  <distance_score>  (85) 
0.874065

>  <original ID>  (85) 
IBGRYOWVMGBQTA-VCBZYWHSSA-N

>  <HIPPO Compound ID>  (85) 
17072

>  <exports>  (85) 
['/opt/xchem-fragalysis-2/maxwin/BulkDock/OUTPUTS/RdRp_knitwork_primer_grip_n_pocket_pure_split1800_batch001_217035.sdf', '/opt/xchem-fragalysis-2/maxwin/BulkDock/OUTPUTS/RdRp_knitwork_primer_grip_n_pocket_pure_fragalysis.sdf']

>  <fragmenstein_mode>  (85) 
expansion

>  <scratch_subdir>  (85) 
/opt/xchem-fragalysis-2/maxwin/BulkDock/SCRATCH/217035/C17072-P19

>  <ref_pdb>  (85) 
d0191a

>  <ref_mols>  (85) 
d0191a,d0254a

>  <original SMILES>  (85) 
C[C@H](N[C@H](C)c1ccc(-c2cccnc2)cc1)[C@@H]1CCCO1

>  <alias>  (85) 
None

>  <tags>  (85) 
['Primer grip/N-pocket merge', 'AC curated INTERESTING', 'Knitwork pure merge', 'Fragmenstein placed', 'acceptable']

>  <fragmenstein_outcome>  (85) 
acceptable

>  <csv_name>  (85) 
RdRp_knitwork_primer_grip_n_pocket_pure_split1800_batch001.csv

>  <HIPPO Pose ID>  (85) 
73360

>  <SLURM_JOB_NAME>  (85) 
BulkDock.place:Flavi_NS5_RdRp:RdRp_knitwork_primer_grip_n_pocket_pure_split1800_batch001

>  <fragmenstein_runtime>  (85) 
9.750204

>  <fragmenstein_error>  (85) 
None

>  <SLURM_JOB_ID>  (85) 
217035

>  <inchikey>  (85) 
IBGRYOWVMGBQTA-VCBZYWHSSA-N

$$$$
FFWXXJFXGUGBRA-FQEVSTJZSA-N
     RDKit          3D

 20 21  0  0  0  0  0  0  0  0999 V2000
  -15.3925  -39.9723  -26.1508 C   0  0  0  0  0  0  0  0  0  0  0  0
  -15.5647  -41.0629  -25.1929 N   0  0  0  0  0  0  0  0  0  0  0  0
  -16.7523  -41.8227  -25.5782 C   0  0  0  0  0  0  0  0  0  0  0  0
  -15.3182  -40.7837  -23.5537 S   0  0  1  0  0  0  0  0  0  0  0  0
  -14.3235  -39.4458  -23.4323 N   0  0  0  0  0  0  0  0  0  0  0  0
  -16.5663  -40.3528  -22.9839 O   0  0  0  0  0  0  0  0  0  0  0  0
  -14.3573  -41.8140  -23.0285 N   0  0  0  0  0  0  0  0  0  0  0  0
  -14.7777  -43.1201  -22.7615 C   0  0  0  0  0  0  0  0  0  0  0  0
  -15.1818  -43.8646  -23.6451 O   0  0  0  0  0  0  0  0  0  0  0  0
  -14.6741  -43.5933  -21.3830 C   0  0  0  0  0  0  0  0  0  0  0  0
  -13.6854  -43.1792  -20.4614 C   0  0  0  0  0  0  0  0  0  0  0  0
  -13.7655  -43.8105  -19.2914 N   0  0  0  0  0  0  0  0  0  0  0  0
  -14.8104  -44.6417  -19.4481 N   0  0  0  0  0  0  0  0  0  0  0  0
  -15.2488  -45.3439  -18.2718 C   0  0  0  0  0  0  0  0  0  0  0  0
  -15.3808  -44.5771  -20.6954 C   0  0  0  0  0  0  0  0  0  0  0  0
  -16.4534  -45.3591  -21.1349 N   0  0  0  0  0  0  0  0  0  0  0  0
  -16.7980  -46.6293  -20.7017 C   0  0  0  0  0  0  0  0  0  0  0  0
  -17.8270  -47.1093  -21.4813 C   0  0  0  0  0  0  0  0  0  0  0  0
  -18.1812  -46.0908  -22.3801 C   0  0  0  0  0  0  0  0  0  0  0  0
  -17.3646  -45.0198  -22.1135 C   0  0  0  0  0  0  0  0  0  0  0  0
  1  2  1  0
  2  3  1  0
  2  4  1  0
  4  5  1  6
  4  6  2  0
  4  7  2  0
  7  8  1  0
  8  9  2  0
  8 10  1  0
 10 11  1  0
 11 12  2  0
 12 13  1  0
 13 14  1  0
 13 15  1  0
 15 16  1  0
 16 17  1  0
 17 18  2  0
 18 19  1  0
 19 20  2  0
 15 10  2  0
 20 16  1  0
M  END
>  <energy_score>  (86) 
-80.708509

>  <name>  (86) 
FFWXXJFXGUGBRA-FQEVSTJZSA-N

>  <distance_score>  (86) 
0.886836

>  <original ID>  (86) 
FFWXXJFXGUGBRA-FQEVSTJZSA-N

>  <HIPPO Compound ID>  (86) 
21483

>  <exports>  (86) 
['/opt/xchem-fragalysis-2/maxwin/BulkDock/OUTPUTS/RdRp_knitwork_primer_grip_n_pocket_pure_split1800_batch009_217043.sdf', '/opt/xchem-fragalysis-2/maxwin/BulkDock/OUTPUTS/RdRp_knitwork_primer_grip_n_pocket_pure_fragalysis.sdf']

>  <fragmenstein_mode>  (86) 
expansion

>  <scratch_subdir>  (86) 
/opt/xchem-fragalysis-2/maxwin/BulkDock/SCRATCH/217043/C21483-P42

>  <ref_pdb>  (86) 
d0472a

>  <ref_mols>  (86) 
d0160a,d0472a

>  <original SMILES>  (86) 
CN(C)[S@@](N)(=O)=NC(=O)c1cnn(C)c1-n1cccc1

>  <alias>  (86) 
None

>  <tags>  (86) 
['Primer grip/N-pocket merge', 'AC curated INTERESTING', 'Knitwork pure merge', 'Fragmenstein placed', 'acceptable']

>  <fragmenstein_outcome>  (86) 
acceptable

>  <csv_name>  (86) 
RdRp_knitwork_primer_grip_n_pocket_pure_split1800_batch009.csv

>  <HIPPO Pose ID>  (86) 
73553

>  <SLURM_JOB_NAME>  (86) 
BulkDock.place:Flavi_NS5_RdRp:RdRp_knitwork_primer_grip_n_pocket_pure_split1800_batch009

>  <fragmenstein_runtime>  (86) 
4.107632

>  <fragmenstein_error>  (86) 
None

>  <SLURM_JOB_ID>  (86) 
217043

>  <inchikey>  (86) 
FFWXXJFXGUGBRA-FQEVSTJZSA-N

$$$$
TXVJWSUUKKOFIK-UHFFFAOYSA-N
     RDKit          3D

 22 23  0  0  0  0  0  0  0  0999 V2000
  -15.4119  -45.7274  -17.9912 C   0  0  0  0  0  0  0  0  0  0  0  0
  -14.7963  -44.9776  -19.0508 N   0  0  0  0  0  0  0  0  0  0  0  0
  -13.6819  -44.3008  -18.7222 N   0  0  0  0  0  0  0  0  0  0  0  0
  -13.4356  -43.5639  -19.7991 C   0  0  0  0  0  0  0  0  0  0  0  0
  -14.4077  -43.7251  -20.8113 C   0  0  0  0  0  0  0  0  0  0  0  0
  -14.3682  -43.0262  -22.0773 C   0  0  0  0  0  0  0  0  0  0  0  0
  -14.8584  -43.4422  -23.1173 O   0  0  0  0  0  0  0  0  0  0  0  0
  -13.7060  -41.8282  -22.0216 O   0  0  0  0  0  0  0  0  0  0  0  0
  -14.3405  -40.7878  -21.2650 C   0  0  0  0  0  0  0  0  0  0  0  0
  -14.2309  -39.4673  -22.0328 C   0  0  0  0  0  0  0  0  0  0  0  0
  -14.4917  -39.5781  -23.5348 C   0  0  0  0  0  0  0  0  0  0  0  0
  -15.7762  -40.3078  -23.9238 C   0  0  0  0  0  0  0  0  0  0  0  0
  -15.6725  -40.9209  -25.3152 C   0  0  0  0  0  0  0  0  0  0  0  0
  -16.8583  -41.7951  -25.6579 C   0  0  0  0  0  0  0  0  0  0  0  0
  -15.5633  -39.9345  -26.2381 F   0  0  0  0  0  0  0  0  0  0  0  0
  -14.5495  -41.6694  -25.4029 F   0  0  0  0  0  0  0  0  0  0  0  0
  -15.2482  -44.7231  -20.3237 C   0  0  0  0  0  0  0  0  0  0  0  0
  -16.3366  -45.3720  -20.9272 N   0  0  0  0  0  0  0  0  0  0  0  0
  -16.8117  -46.6429  -20.6338 C   0  0  0  0  0  0  0  0  0  0  0  0
  -17.8613  -46.9507  -21.4707 C   0  0  0  0  0  0  0  0  0  0  0  0
  -18.0726  -45.8353  -22.2961 C   0  0  0  0  0  0  0  0  0  0  0  0
  -17.1446  -44.8863  -21.9354 C   0  0  0  0  0  0  0  0  0  0  0  0
  1  2  1  0
  2  3  1  0
  3  4  2  0
  4  5  1  0
  5  6  1  0
  6  7  2  0
  6  8  1  0
  8  9  1  0
  9 10  1  0
 10 11  1  0
 11 12  1  0
 12 13  1  0
 13 14  1  0
 13 15  1  0
 13 16  1  0
  5 17  2  0
 17 18  1  0
 18 19  1  0
 19 20  2  0
 20 21  1  0
 21 22  2  0
 17  2  1  0
 22 18  1  0
M  END
>  <energy_score>  (87) 
-38.390296

>  <name>  (87) 
TXVJWSUUKKOFIK-UHFFFAOYSA-N

>  <distance_score>  (87) 
0.99812

>  <original ID>  (87) 
TXVJWSUUKKOFIK-UHFFFAOYSA-N

>  <HIPPO Compound ID>  (87) 
22012

>  <exports>  (87) 
['/opt/xchem-fragalysis-2/maxwin/BulkDock/OUTPUTS/RdRp_knitwork_primer_grip_n_pocket_pure_split1800_batch009_217043.sdf', '/opt/xchem-fragalysis-2/maxwin/BulkDock/OUTPUTS/RdRp_knitwork_primer_grip_n_pocket_pure_fragalysis.sdf']

>  <fragmenstein_mode>  (87) 
expansion

>  <scratch_subdir>  (87) 
/opt/xchem-fragalysis-2/maxwin/BulkDock/SCRATCH/217043/C22012-P42

>  <ref_pdb>  (87) 
d0472a

>  <ref_mols>  (87) 
d0160a,d0472a

>  <original SMILES>  (87) 
Cn1ncc(C(=O)OCCCCC(C)(F)F)c1-n1cccc1

>  <alias>  (87) 
None

>  <tags>  (87) 
['Primer grip/N-pocket merge', 'AC curated INTERESTING', 'Knitwork pure merge', 'Fragmenstein placed', 'acceptable']

>  <fragmenstein_outcome>  (87) 
acceptable

>  <csv_name>  (87) 
RdRp_knitwork_primer_grip_n_pocket_pure_split1800_batch009.csv

>  <HIPPO Pose ID>  (87) 
74043

>  <SLURM_JOB_NAME>  (87) 
BulkDock.place:Flavi_NS5_RdRp:RdRp_knitwork_primer_grip_n_pocket_pure_split1800_batch009

>  <fragmenstein_runtime>  (87) 
5.769195

>  <fragmenstein_error>  (87) 
None

>  <SLURM_JOB_ID>  (87) 
217043

>  <inchikey>  (87) 
TXVJWSUUKKOFIK-UHFFFAOYSA-N

$$$$
NOINGOYTRGWMNJ-JTQLQIEISA-N
     RDKit          3D

 19 20  0  0  0  0  0  0  0  0999 V2000
  -20.3803  -43.2106  -22.9390 C   0  0  0  0  0  0  0  0  0  0  0  0
  -20.7260  -43.3365  -21.4629 C   0  0  0  0  0  0  0  0  0  0  0  0
  -19.6940  -44.0549  -20.6457 C   0  0  0  0  0  0  0  0  0  0  0  0
  -18.4092  -44.1997  -21.1472 N   0  0  0  0  0  0  0  0  0  0  0  0
  -17.6294  -44.6732  -20.2009 C   0  0  0  0  0  0  0  0  0  0  0  0
  -16.2286  -44.5455  -20.2565 N   0  0  0  0  0  0  0  0  0  0  0  0
  -15.2775  -44.7837  -19.2674 C   0  0  0  0  0  0  0  0  0  0  0  0
  -14.0537  -44.3053  -19.6882 C   0  0  0  0  0  0  0  0  0  0  0  0
  -14.2152  -43.8443  -21.0106 C   0  0  0  0  0  0  0  0  0  0  0  0
  -15.5378  -44.0230  -21.3419 C   0  0  0  0  0  0  0  0  0  0  0  0
  -18.4053  -45.2684  -18.8092 S   0  0  0  0  0  0  0  0  0  0  0  0
  -19.8667  -44.5546  -19.3628 C   0  0  0  0  0  0  0  0  0  0  0  0
  -21.0172  -44.4234  -18.5078 C   0  0  0  0  0  0  0  0  0  0  0  0
  -21.6882  -43.4043  -18.4023 O   0  0  0  0  0  0  0  0  0  0  0  0
  -21.2743  -45.5952  -17.8665 O   0  0  0  0  0  0  0  0  0  0  0  0
  -22.3936  -45.6148  -16.9531 C   0  0  1  0  0  0  0  0  0  0  0  0
  -23.7142  -45.5122  -17.7135 C   0  0  0  0  0  0  0  0  0  0  0  0
  -22.2839  -46.9422  -16.1889 C   0  0  0  0  0  0  0  0  0  0  0  0
  -23.3335  -47.1165  -15.1051 C   0  0  0  0  0  0  0  0  0  0  0  0
  1  2  1  0
  2  3  1  0
  3  4  1  0
  4  5  2  0
  5  6  1  0
  6  7  1  0
  7  8  2  0
  8  9  1  0
  9 10  2  0
  5 11  1  0
 11 12  1  0
 12 13  1  0
 13 14  2  0
 13 15  1  0
 15 16  1  0
 16 17  1  6
 16 18  1  0
 18 19  1  0
 12  3  2  0
 10  6  1  0
M  END
>  <energy_score>  (88) 
-73.927571

>  <name>  (88) 
NOINGOYTRGWMNJ-JTQLQIEISA-N

>  <distance_score>  (88) 
0.97023

>  <original ID>  (88) 
NOINGOYTRGWMNJ-JTQLQIEISA-N

>  <HIPPO Compound ID>  (88) 
15932

>  <exports>  (88) 
['/opt/xchem-fragalysis-2/maxwin/BulkDock/OUTPUTS/RdRp_knitwork_primer_grip_n_pocket_pure_split1800_batch003_217037.sdf', '/opt/xchem-fragalysis-2/maxwin/BulkDock/OUTPUTS/RdRp_knitwork_primer_grip_n_pocket_pure_fragalysis.sdf']

>  <fragmenstein_mode>  (88) 
expansion

>  <scratch_subdir>  (88) 
/opt/xchem-fragalysis-2/maxwin/BulkDock/SCRATCH/217037/C15932-P42

>  <ref_pdb>  (88) 
d0472a

>  <ref_mols>  (88) 
d0264a,d0472a

>  <original SMILES>  (88) 
CCc1nc(-n2cccc2)sc1C(=O)O[C@@H](C)CC

>  <alias>  (88) 
None

>  <tags>  (88) 
['Primer grip/N-pocket merge', 'AC curated INTERESTING', 'Knitwork pure merge', 'Fragmenstein placed', 'acceptable']

>  <fragmenstein_outcome>  (88) 
acceptable

>  <csv_name>  (88) 
RdRp_knitwork_primer_grip_n_pocket_pure_split1800_batch003.csv

>  <HIPPO Pose ID>  (88) 
74230

>  <SLURM_JOB_NAME>  (88) 
BulkDock.place:Flavi_NS5_RdRp:RdRp_knitwork_primer_grip_n_pocket_pure_split1800_batch003

>  <fragmenstein_runtime>  (88) 
7.354595

>  <fragmenstein_error>  (88) 
None

>  <SLURM_JOB_ID>  (88) 
217037

>  <inchikey>  (88) 
NOINGOYTRGWMNJ-JTQLQIEISA-N

$$$$
AIKMHADXUOCSLX-BDAKNGLRSA-N
     RDKit          3D

 16 17  0  0  0  0  0  0  0  0999 V2000
  -18.4719  -44.1515  -22.5007 O   0  0  0  0  0  0  0  0  0  0  0  0
  -17.8799  -43.8088  -23.5123 C   0  0  0  0  0  0  0  0  0  0  0  0
  -18.5401  -43.7274  -24.6832 O   0  0  0  0  0  0  0  0  0  0  0  0
  -16.4397  -43.3603  -23.6134 C   0  0  2  0  0  0  0  0  0  0  0  0
  -15.6486  -43.9227  -22.4540 C   0  0  0  0  0  0  0  0  0  0  0  0
  -15.8997  -42.9344  -21.3349 C   0  0  0  0  0  0  0  0  0  0  0  0
  -16.4569  -41.7512  -21.9231 O   0  0  0  0  0  0  0  0  0  0  0  0
  -16.3848  -41.8721  -23.3609 C   0  0  1  0  0  0  0  0  0  0  0  0
  -15.0853  -41.1668  -23.7773 C   0  0  0  0  0  0  0  0  0  0  0  0
  -14.7970  -40.9717  -25.1834 N   0  0  0  0  0  0  0  0  0  0  0  0
  -15.8808  -40.6178  -26.0735 C   0  0  0  0  0  0  0  0  0  0  0  0
  -16.5983  -39.3146  -25.9027 C   0  0  0  0  0  0  0  0  0  0  0  0
  -17.3491  -38.7034  -26.8878 C   0  0  0  0  0  0  0  0  0  0  0  0
  -18.1362  -37.6346  -26.5126 N   0  0  0  0  0  0  0  0  0  0  0  0
  -17.8539  -37.3431  -25.2604 C   0  0  0  0  0  0  0  0  0  0  0  0
  -16.7392  -38.3805  -24.4773 S   0  0  0  0  0  0  0  0  0  0  0  0
  1  2  2  0
  2  3  1  0
  4  2  1  1
  4  5  1  0
  5  6  1  0
  6  7  1  0
  7  8  1  0
  8  9  1  1
  9 10  1  0
 10 11  1  0
 11 12  1  0
 12 13  2  0
 13 14  1  0
 14 15  2  0
 15 16  1  0
  8  4  1  0
 16 12  1  0
M  END
>  <energy_score>  (89) 
-76.193431

>  <name>  (89) 
AIKMHADXUOCSLX-BDAKNGLRSA-N

>  <distance_score>  (89) 
0.983795

>  <original ID>  (89) 
AIKMHADXUOCSLX-BDAKNGLRSA-N

>  <HIPPO Compound ID>  (89) 
22253

>  <exports>  (89) 
['/opt/xchem-fragalysis-2/maxwin/BulkDock/OUTPUTS/RdRp_knitwork_primer_grip_n_pocket_pure_split1800_batch001_217035.sdf', '/opt/xchem-fragalysis-2/maxwin/BulkDock/OUTPUTS/RdRp_knitwork_primer_grip_n_pocket_pure_fragalysis.sdf']

>  <fragmenstein_mode>  (89) 
expansion

>  <scratch_subdir>  (89) 
/opt/xchem-fragalysis-2/maxwin/BulkDock/SCRATCH/217035/C22253-P51

>  <ref_pdb>  (89) 
d0615b

>  <ref_mols>  (89) 
d0254a,d0615b

>  <original SMILES>  (89) 
O=C(O)[C@@H]1CCO[C@H]1CNCc1cncs1

>  <alias>  (89) 
None

>  <tags>  (89) 
['Primer grip/N-pocket merge', 'AC curated INTERESTING', 'Knitwork pure merge', 'Fragmenstein placed', 'acceptable']

>  <fragmenstein_outcome>  (89) 
acceptable

>  <csv_name>  (89) 
RdRp_knitwork_primer_grip_n_pocket_pure_split1800_batch001.csv

>  <HIPPO Pose ID>  (89) 
75009

>  <SLURM_JOB_NAME>  (89) 
BulkDock.place:Flavi_NS5_RdRp:RdRp_knitwork_primer_grip_n_pocket_pure_split1800_batch001

>  <fragmenstein_runtime>  (89) 
2.261087

>  <fragmenstein_error>  (89) 
None

>  <SLURM_JOB_ID>  (89) 
217035

>  <inchikey>  (89) 
AIKMHADXUOCSLX-BDAKNGLRSA-N

$$$$
GUFDDOCDYVUCQD-ZJUUUORDSA-N
     RDKit          3D

 14 15  0  0  0  0  0  0  0  0999 V2000
  -14.3928  -41.9602  -22.6170 C   0  0  0  0  0  0  0  0  0  0  0  0
  -14.7470  -42.3860  -24.0412 C   0  0  0  0  0  0  0  0  0  0  0  0
  -15.9193  -41.5985  -24.6760 C   0  0  1  0  0  0  0  0  0  0  0  0
  -15.4682  -40.2638  -25.4005 C   0  0  2  0  0  0  0  0  0  0  0  0
  -14.3256  -39.5668  -24.7906 N   0  0  0  0  0  0  0  0  0  0  0  0
  -16.5866  -39.2613  -25.5958 C   0  0  0  0  0  0  0  0  0  0  0  0
  -17.2642  -38.9288  -26.7553 C   0  0  0  0  0  0  0  0  0  0  0  0
  -18.2580  -37.9654  -26.6418 N   0  0  0  0  0  0  0  0  0  0  0  0
  -18.2686  -37.5300  -25.3992 C   0  0  0  0  0  0  0  0  0  0  0  0
  -17.1620  -38.2583  -24.3185 S   0  0  0  0  0  0  0  0  0  0  0  0
  -16.6371  -42.5325  -25.6644 C   0  0  0  0  0  0  0  0  0  0  0  0
  -17.5675  -43.3535  -24.7899 C   0  0  0  0  0  0  0  0  0  0  0  0
  -17.5334  -42.6813  -23.4349 C   0  0  0  0  0  0  0  0  0  0  0  0
  -16.9137  -41.4100  -23.6447 O   0  0  0  0  0  0  0  0  0  0  0  0
  1  2  1  0
  3  2  1  1
  3  4  1  0
  4  5  1  1
  4  6  1  0
  6  7  2  0
  7  8  1  0
  8  9  2  0
  9 10  1  0
  3 11  1  0
 11 12  1  0
 12 13  1  0
 13 14  1  0
 14  3  1  0
 10  6  1  0
M  END
>  <energy_score>  (90) 
-31.597781

>  <name>  (90) 
GUFDDOCDYVUCQD-ZJUUUORDSA-N

>  <distance_score>  (90) 
0.9512

>  <original ID>  (90) 
GUFDDOCDYVUCQD-ZJUUUORDSA-N

>  <HIPPO Compound ID>  (90) 
22360

>  <exports>  (90) 
['/opt/xchem-fragalysis-2/maxwin/BulkDock/OUTPUTS/RdRp_knitwork_primer_grip_n_pocket_pure_split1800_batch001_217035.sdf', '/opt/xchem-fragalysis-2/maxwin/BulkDock/OUTPUTS/RdRp_knitwork_primer_grip_n_pocket_pure_fragalysis.sdf']

>  <fragmenstein_mode>  (90) 
expansion

>  <scratch_subdir>  (90) 
/opt/xchem-fragalysis-2/maxwin/BulkDock/SCRATCH/217035/C22360-P26

>  <ref_pdb>  (90) 
d0254a

>  <ref_mols>  (90) 
d0254a,d0615b

>  <original SMILES>  (90) 
CC[C@@]1([C@H](N)c2cncs2)CCCO1

>  <alias>  (90) 
None

>  <tags>  (90) 
['Primer grip/N-pocket merge', 'AC curated INTERESTING', 'Knitwork pure merge', 'Fragmenstein placed', 'acceptable']

>  <fragmenstein_outcome>  (90) 
acceptable

>  <csv_name>  (90) 
RdRp_knitwork_primer_grip_n_pocket_pure_split1800_batch001.csv

>  <HIPPO Pose ID>  (90) 
75040

>  <SLURM_JOB_NAME>  (90) 
BulkDock.place:Flavi_NS5_RdRp:RdRp_knitwork_primer_grip_n_pocket_pure_split1800_batch001

>  <fragmenstein_runtime>  (90) 
2.356851

>  <fragmenstein_error>  (90) 
None

>  <SLURM_JOB_ID>  (90) 
217035

>  <inchikey>  (90) 
GUFDDOCDYVUCQD-ZJUUUORDSA-N

$$$$
ROUNVNLNYKULJE-IUCAKERBSA-N
     RDKit          3D

 15 16  0  0  0  0  0  0  0  0999 V2000
  -18.5421  -45.2926  -21.7371 N   0  0  0  0  0  0  0  0  0  0  0  0
  -18.3872  -44.5899  -23.0140 C   0  0  0  0  0  0  0  0  0  0  0  0
  -17.2415  -43.5854  -22.9038 C   0  0  2  0  0  0  0  0  0  0  0  0
  -16.7595  -42.9512  -24.1927 C   0  0  0  0  0  0  0  0  0  0  0  0
  -15.3212  -42.5635  -23.8564 C   0  0  1  0  0  0  0  0  0  0  0  0
  -15.1889  -41.0828  -23.4920 C   0  0  0  0  0  0  0  0  0  0  0  0
  -14.6319  -40.2380  -24.5428 N   0  0  0  0  0  0  0  0  0  0  0  0
  -15.4160  -40.0899  -25.7608 C   0  0  0  0  0  0  0  0  0  0  0  0
  -16.5243  -39.0853  -25.7234 C   0  0  0  0  0  0  0  0  0  0  0  0
  -17.3229  -38.7259  -26.7921 C   0  0  0  0  0  0  0  0  0  0  0  0
  -18.3329  -37.8138  -26.5433 N   0  0  0  0  0  0  0  0  0  0  0  0
  -18.2146  -37.4071  -25.2957 C   0  0  0  0  0  0  0  0  0  0  0  0
  -16.9789  -38.1451  -24.3662 S   0  0  0  0  0  0  0  0  0  0  0  0
  -14.9508  -43.4644  -22.6783 C   0  0  0  0  0  0  0  0  0  0  0  0
  -16.0936  -44.2562  -22.3650 O   0  0  0  0  0  0  0  0  0  0  0  0
  1  2  1  0
  3  2  1  6
  3  4  1  0
  4  5  1  0
  5  6  1  1
  6  7  1  0
  7  8  1  0
  8  9  1  0
  9 10  2  0
 10 11  1  0
 11 12  2  0
 12 13  1  0
  5 14  1  0
 14 15  1  0
 15  3  1  0
 13  9  1  0
M  END
>  <energy_score>  (91) 
-101.231071

>  <name>  (91) 
ROUNVNLNYKULJE-IUCAKERBSA-N

>  <distance_score>  (91) 
0.957126

>  <original ID>  (91) 
ROUNVNLNYKULJE-IUCAKERBSA-N

>  <HIPPO Compound ID>  (91) 
23087

>  <exports>  (91) 
['/opt/xchem-fragalysis-2/maxwin/BulkDock/OUTPUTS/RdRp_knitwork_primer_grip_n_pocket_pure_split1800_batch001_217035.sdf', '/opt/xchem-fragalysis-2/maxwin/BulkDock/OUTPUTS/RdRp_knitwork_primer_grip_n_pocket_pure_fragalysis.sdf']

>  <fragmenstein_mode>  (91) 
expansion

>  <scratch_subdir>  (91) 
/opt/xchem-fragalysis-2/maxwin/BulkDock/SCRATCH/217035/C23087-P51

>  <ref_pdb>  (91) 
d0615b

>  <ref_mols>  (91) 
d0254a,d0615b

>  <original SMILES>  (91) 
NC[C@@H]1C[C@@H](CNCc2cncs2)CO1

>  <alias>  (91) 
None

>  <tags>  (91) 
['Primer grip/N-pocket merge', 'AC curated INTERESTING', 'Knitwork pure merge', 'Fragmenstein placed', 'acceptable']

>  <fragmenstein_outcome>  (91) 
acceptable

>  <csv_name>  (91) 
RdRp_knitwork_primer_grip_n_pocket_pure_split1800_batch001.csv

>  <HIPPO Pose ID>  (91) 
75562

>  <SLURM_JOB_NAME>  (91) 
BulkDock.place:Flavi_NS5_RdRp:RdRp_knitwork_primer_grip_n_pocket_pure_split1800_batch001

>  <fragmenstein_runtime>  (91) 
2.263562

>  <fragmenstein_error>  (91) 
None

>  <SLURM_JOB_ID>  (91) 
217035

>  <inchikey>  (91) 
ROUNVNLNYKULJE-IUCAKERBSA-N

$$$$
MQQPLOYUSOAAKC-SFHVURJKSA-N
     RDKit          3D

 30 32  0  0  0  0  0  0  0  0999 V2000
  -17.1689  -46.9553  -20.7176 C   0  0  0  0  0  0  0  0  0  0  0  0
  -18.0111  -45.8475  -20.1693 C   0  0  0  0  0  0  0  0  0  0  0  0
  -18.8628  -46.1065  -18.7283 S   0  0  0  0  0  0  0  0  0  0  0  0
  -19.5730  -44.5482  -18.7377 C   0  0  0  0  0  0  0  0  0  0  0  0
  -20.5852  -44.1626  -17.6696 C   0  0  2  0  0  0  0  0  0  0  0  0
  -20.0379  -43.1205  -16.7048 C   0  0  0  0  0  0  0  0  0  0  0  0
  -21.0078  -45.3287  -16.9318 N   0  0  0  0  0  0  0  0  0  0  0  0
  -22.4264  -45.8421  -16.5912 C   0  0  0  0  0  0  0  0  0  0  0  0
  -23.4703  -45.3625  -16.7876 O   0  0  0  0  0  0  0  0  0  0  0  0
  -22.2329  -47.1865  -15.8647 C   0  0  0  0  0  0  0  0  0  0  0  0
  -23.5181  -47.6070  -15.1686 C   0  0  0  0  0  0  0  0  0  0  0  0
  -21.8029  -48.2762  -16.8398 C   0  0  0  0  0  0  0  0  0  0  0  0
  -19.0588  -43.7821  -19.7816 C   0  0  0  0  0  0  0  0  0  0  0  0
  -19.3098  -42.3164  -19.9935 C   0  0  0  0  0  0  0  0  0  0  0  0
  -18.2031  -44.5654  -20.6534 C   0  0  0  0  0  0  0  0  0  0  0  0
  -17.5399  -44.0055  -21.8798 C   0  0  0  0  0  0  0  0  0  0  0  0
  -17.6912  -44.8863  -23.1229 C   0  0  0  0  0  0  0  0  0  0  0  0
  -17.6673  -44.1197  -24.3631 N   0  0  0  0  0  0  0  0  0  0  0  0
  -16.6753  -43.2462  -24.6378 C   0  0  0  0  0  0  0  0  0  0  0  0
  -15.3845  -43.1435  -24.0770 C   0  0  0  0  0  0  0  0  0  0  0  0
  -14.8232  -41.9889  -24.5762 C   0  0  0  0  0  0  0  0  0  0  0  0
  -15.6815  -41.4677  -25.5057 N   0  0  0  0  0  0  0  0  0  0  0  0
  -15.4200  -40.2984  -26.3319 C   0  0  0  0  0  0  0  0  0  0  0  0
  -16.4597  -39.2394  -26.1149 C   0  0  0  0  0  0  0  0  0  0  0  0
  -16.5143  -38.4867  -24.9388 C   0  0  0  0  0  0  0  0  0  0  0  0
  -17.5012  -37.5232  -24.7913 C   0  0  0  0  0  0  0  0  0  0  0  0
  -18.3989  -37.3546  -25.8304 C   0  0  0  0  0  0  0  0  0  0  0  0
  -18.4133  -38.0827  -26.9660 N   0  0  0  0  0  0  0  0  0  0  0  0
  -17.4301  -39.0036  -27.0833 C   0  0  0  0  0  0  0  0  0  0  0  0
  -16.8179  -42.2311  -25.5438 C   0  0  0  0  0  0  0  0  0  0  0  0
  1  2  1  0
  2  3  1  0
  3  4  1  0
  4  5  1  0
  5  6  1  1
  5  7  1  0
  7  8  1  0
  8  9  2  0
  8 10  1  0
 10 11  1  0
 10 12  1  0
  4 13  2  0
 13 14  1  0
 13 15  1  0
 15 16  1  0
 16 17  1  0
 17 18  1  0
 18 19  1  0
 19 20  1  0
 20 21  2  0
 21 22  1  0
 22 23  1  0
 23 24  1  0
 24 25  2  0
 25 26  1  0
 26 27  2  0
 27 28  1  0
 28 29  2  0
 22 30  1  0
 15  2  2  0
 30 19  2  0
 29 24  1  0
M  END
>  <energy_score>  (92) 
-44.814416

>  <name>  (92) 
MQQPLOYUSOAAKC-SFHVURJKSA-N

>  <distance_score>  (92) 
0.760951

>  <original ID>  (92) 
MQQPLOYUSOAAKC-SFHVURJKSA-N

>  <HIPPO Compound ID>  (92) 
67404

>  <exports>  (92) 
['/opt/xchem-fragalysis-2/maxwin/BulkDock/OUTPUTS/primer_grip_n_pocket_fstein_bulkdock_input_split1000_batch000_217912.sdf', '/opt/xchem-fragalysis-2/maxwin/BulkDock/OUTPUTS/primer_grip_n_pocket_fstein_bulkdock_input_split1000_batch000_217912_fragalysis.sdf']

>  <fragmenstein_mode>  (92) 
expansion

>  <scratch_subdir>  (92) 
/opt/xchem-fragalysis-2/maxwin/BulkDock/SCRATCH/217912/C67404-P19

>  <ref_pdb>  (92) 
d0191a

>  <ref_mols>  (92) 
d0191a,d0264a

>  <original SMILES>  (92) 
Cc1sc([C@H](C)NC(=O)C(C)C)c(C)c1CCNc1ccn(Cc2cccnc2)c1

>  <alias>  (92) 
None

>  <tags>  (92) 
['Primer grip/N-pocket merge', 'Fragmenstein pure merge', 'AC curated INTERESTING', 'Fragmenstein placed', 'acceptable']

>  <fragmenstein_outcome>  (92) 
acceptable

>  <csv_name>  (92) 
primer_grip_n_pocket_fstein_bulkdock_input_split1000_batch000.csv

>  <HIPPO Pose ID>  (92) 
77527

>  <SLURM_JOB_NAME>  (92) 
BulkDock.place:Flavi_NS5_RdRp:primer_grip_n_pocket_fstein_bulkdock_input_split1000_batch000

>  <fragmenstein_runtime>  (92) 
96.404382

>  <fragmenstein_error>  (92) 
None

>  <SLURM_JOB_ID>  (92) 
217912

>  <inchikey>  (92) 
MQQPLOYUSOAAKC-SFHVURJKSA-N

$$$$
MQVROZJOLUQYFG-UHFFFAOYSA-N
     RDKit          3D

 28 31  0  0  0  0  0  0  0  0999 V2000
  -12.4673  -69.3870  -24.5450 N   0  0  0  0  0  0  0  0  0  0  0  0
  -12.4574  -69.7438  -23.2496 C   0  0  0  0  0  0  0  0  0  0  0  0
  -11.3766  -70.1879  -22.6698 N   0  0  0  0  0  0  0  0  0  0  0  0
  -11.6028  -70.4149  -21.3222 C   0  0  0  0  0  0  0  0  0  0  0  0
  -10.5140  -70.9102  -20.4943 C   0  0  0  0  0  0  0  0  0  0  0  0
   -9.4197  -71.4983  -21.1368 C   0  0  0  0  0  0  0  0  0  0  0  0
   -8.3247  -71.9756  -20.4197 C   0  0  0  0  0  0  0  0  0  0  0  0
   -8.2684  -71.8462  -19.0350 C   0  0  0  0  0  0  0  0  0  0  0  0
   -7.1577  -72.2334  -18.2725 N   0  0  0  0  0  0  0  0  0  0  0  0
   -7.3176  -73.6352  -17.7833 C   0  0  0  0  0  0  0  0  0  0  0  0
   -6.1976  -74.0908  -16.8047 C   0  0  0  0  0  0  0  0  0  0  0  0
   -5.1265  -74.4059  -17.1777 O   0  0  0  0  0  0  0  0  0  0  0  0
   -6.7540  -73.9804  -15.3960 N   0  0  0  0  0  0  0  0  0  0  0  0
   -7.3827  -75.3012  -14.9437 C   0  0  0  0  0  0  0  0  0  0  0  0
   -8.4544  -75.2003  -13.8464 C   0  0  0  0  0  0  0  0  0  0  0  0
   -7.8392  -74.9060  -12.5992 O   0  0  0  0  0  0  0  0  0  0  0  0
   -6.9191  -73.8378  -12.8073 C   0  0  0  0  0  0  0  0  0  0  0  0
   -6.0722  -74.1418  -14.0481 C   0  0  0  0  0  0  0  0  0  0  0  0
   -5.7942  -71.8189  -18.7075 C   0  0  0  0  0  0  0  0  0  0  0  0
   -5.6968  -70.3444  -19.1657 C   0  0  0  0  0  0  0  0  0  0  0  0
   -4.3864  -70.0470  -19.9053 C   0  0  0  0  0  0  0  0  0  0  0  0
   -3.2511  -70.9580  -19.4621 C   0  0  0  0  0  0  0  0  0  0  0  0
   -3.5835  -72.4325  -19.7172 C   0  0  0  0  0  0  0  0  0  0  0  0
   -5.0922  -72.7199  -19.7283 C   0  0  0  0  0  0  0  0  0  0  0  0
   -9.3832  -71.2905  -18.3853 C   0  0  0  0  0  0  0  0  0  0  0  0
  -10.4960  -70.8238  -19.1021 C   0  0  0  0  0  0  0  0  0  0  0  0
  -12.8851  -70.1323  -20.8981 C   0  0  0  0  0  0  0  0  0  0  0  0
  -13.8167  -69.5552  -22.2231 S   0  0  0  0  0  0  0  0  0  0  0  0
  1  2  1  0
  2  3  2  0
  3  4  1  0
  4  5  1  0
  5  6  2  0
  6  7  1  0
  7  8  2  0
  8  9  1  0
  9 10  1  0
 10 11  1  0
 11 12  2  0
 11 13  1  0
 13 14  1  0
 14 15  1  0
 15 16  1  0
 16 17  1  0
 17 18  1  0
  9 19  1  0
 19 20  1  0
 20 21  1  0
 21 22  1  0
 22 23  1  0
 23 24  1  0
  8 25  1  0
 25 26  2  0
  4 27  2  0
 27 28  1  0
 28  2  1  0
 26  5  1  0
 18 13  1  0
 24 19  1  0
M  END
>  <energy_score>  (93) 
-167.191929

>  <name>  (93) 
MQVROZJOLUQYFG-UHFFFAOYSA-N

>  <distance_score>  (93) 
0.883148

>  <original ID>  (93) 
MQVROZJOLUQYFG-UHFFFAOYSA-N

>  <HIPPO Compound ID>  (93) 
68657

>  <exports>  (93) 
['/opt/xchem-fragalysis-2/maxwin/BulkDock/OUTPUTS/thumb_site_2_fstein_bulkdock_input_split1000_batch000_217914.sdf', '/opt/xchem-fragalysis-2/maxwin/BulkDock/OUTPUTS/thumb_site_2_fstein_bulkdock_input_split1000_batch000_217914_fragalysis.sdf']

>  <fragmenstein_mode>  (93) 
expansion

>  <scratch_subdir>  (93) 
/opt/xchem-fragalysis-2/maxwin/BulkDock/SCRATCH/217914/C68657-P15

>  <ref_pdb>  (93) 
d0162a

>  <ref_mols>  (93) 
d0162a,d0771a

>  <original SMILES>  (93) 
Nc1nc(-c2ccc(N(CC(=O)N3CCOCC3)C3CCCCC3)cc2)cs1

>  <alias>  (93) 
None

>  <tags>  (93) 
['Fragmenstein pure merge', 'Thumb Site 2 merge', 'AC curated INTERESTING', 'Fragmenstein placed', 'acceptable']

>  <fragmenstein_outcome>  (93) 
acceptable

>  <csv_name>  (93) 
thumb_site_2_fstein_bulkdock_input_split1000_batch000.csv

>  <HIPPO Pose ID>  (93) 
77655

>  <SLURM_JOB_NAME>  (93) 
BulkDock.place:Flavi_NS5_RdRp:thumb_site_2_fstein_bulkdock_input_split1000_batch000

>  <fragmenstein_runtime>  (93) 
31.356249

>  <fragmenstein_error>  (93) 
None

>  <SLURM_JOB_ID>  (93) 
217914

>  <inchikey>  (93) 
MQVROZJOLUQYFG-UHFFFAOYSA-N

$$$$
KPCMUKYNNKXHMF-UHFFFAOYSA-N
     RDKit          3D

 21 22  0  0  0  0  0  0  0  0999 V2000
  -15.2292  -43.8114  -22.5733 N   0  0  0  0  0  0  0  0  0  0  0  0
  -15.3433  -43.8858  -21.1703 C   0  0  0  0  0  0  0  0  0  0  0  0
  -14.4909  -43.1138  -20.3544 C   0  0  0  0  0  0  0  0  0  0  0  0
  -13.4830  -42.1462  -20.9238 C   0  0  0  0  0  0  0  0  0  0  0  0
  -13.9051  -40.7064  -20.7869 C   0  0  0  0  0  0  0  0  0  0  0  0
  -15.0405  -40.2948  -20.9924 O   0  0  0  0  0  0  0  0  0  0  0  0
  -12.8907  -39.8756  -20.4537 O   0  0  0  0  0  0  0  0  0  0  0  0
  -14.5773  -43.2172  -18.9555 C   0  0  0  0  0  0  0  0  0  0  0  0
  -15.5424  -44.0242  -18.3539 C   0  0  0  0  0  0  0  0  0  0  0  0
  -15.6482  -44.1143  -16.8484 C   0  0  0  0  0  0  0  0  0  0  0  0
  -16.6341  -43.1749  -16.1907 C   0  0  0  0  0  0  0  0  0  0  0  0
  -17.0785  -43.3586  -15.0655 O   0  0  0  0  0  0  0  0  0  0  0  0
  -16.9905  -42.0789  -16.8995 O   0  0  0  0  0  0  0  0  0  0  0  0
  -16.4551  -44.7001  -19.1718 C   0  0  0  0  0  0  0  0  0  0  0  0
  -16.3920  -44.6389  -20.5799 C   0  0  0  0  0  0  0  0  0  0  0  0
  -17.3727  -45.4133  -21.3799 C   0  0  0  0  0  0  0  0  0  0  0  0
  -17.6682  -46.7492  -21.0637 C   0  0  0  0  0  0  0  0  0  0  0  0
  -18.5416  -47.5019  -21.8501 C   0  0  0  0  0  0  0  0  0  0  0  0
  -19.1386  -46.9411  -22.9677 C   0  0  0  0  0  0  0  0  0  0  0  0
  -18.8583  -45.6319  -23.3049 C   0  0  0  0  0  0  0  0  0  0  0  0
  -18.0166  -44.8649  -22.5000 C   0  0  0  0  0  0  0  0  0  0  0  0
  1  2  1  0
  2  3  2  0
  3  4  1  0
  4  5  1  0
  5  6  2  0
  5  7  1  0
  3  8  1  0
  8  9  2  0
  9 10  1  0
 10 11  1  0
 11 12  2  0
 11 13  1  0
  9 14  1  0
 14 15  2  0
 15 16  1  0
 16 17  2  0
 17 18  1  0
 18 19  2  0
 19 20  1  0
 20 21  2  0
 15  2  1  0
 21 16  1  0
M  END
>  <energy_score>  (94) 
-57.201697

>  <name>  (94) 
KPCMUKYNNKXHMF-UHFFFAOYSA-N

>  <distance_score>  (94) 
0.807199

>  <original ID>  (94) 
KPCMUKYNNKXHMF-UHFFFAOYSA-N

>  <HIPPO Compound ID>  (94) 
67721

>  <exports>  (94) 
['/opt/xchem-fragalysis-2/maxwin/BulkDock/OUTPUTS/primer_grip_n_pocket_fstein_bulkdock_input_split1000_batch000_217912.sdf', '/opt/xchem-fragalysis-2/maxwin/BulkDock/OUTPUTS/primer_grip_n_pocket_fstein_bulkdock_input_split1000_batch000_217912_fragalysis.sdf', '/opt/xchem-fragalysis-2/maxwin/RdRp_FFF/curation/Curated_DF.sdf']

>  <fragmenstein_mode>  (94) 
expansion

>  <scratch_subdir>  (94) 
/opt/xchem-fragalysis-2/maxwin/BulkDock/SCRATCH/217912/C67721-P231

>  <ref_pdb>  (94) 
5f3z-a

>  <ref_mols>  (94) 
5hmz-a,5f3z-a

>  <original SMILES>  (94) 
Nc1c(CC(=O)O)cc(CC(=O)O)cc1-c1ccccc1

>  <alias>  (94) 
None

>  <tags>  (94) 
['Primer grip/N-pocket merge', 'Fragmenstein pure merge', 'DF curated YES', 'AC curated YES', 'Fragmenstein placed', 'acceptable']

>  <fragmenstein_outcome>  (94) 
acceptable

>  <csv_name>  (94) 
primer_grip_n_pocket_fstein_bulkdock_input_split1000_batch000.csv

>  <HIPPO Pose ID>  (94) 
82423

>  <SLURM_JOB_NAME>  (94) 
BulkDock.place:Flavi_NS5_RdRp:primer_grip_n_pocket_fstein_bulkdock_input_split1000_batch000

>  <fragmenstein_runtime>  (94) 
6.21844

>  <fragmenstein_error>  (94) 
None

>  <SLURM_JOB_ID>  (94) 
217912

>  <inchikey>  (94) 
KPCMUKYNNKXHMF-UHFFFAOYSA-N

$$$$
CYTVGLIGRGDJAE-UHFFFAOYSA-N
     RDKit          3D

 21 22  0  0  0  0  0  0  0  0999 V2000
  -12.7838  -35.2121  -20.3232 C   0  0  0  0  0  0  0  0  0  0  0  0
  -12.1587  -36.5563  -20.5888 N   0  0  0  0  0  0  0  0  0  0  0  0
  -10.9298  -35.7340  -20.4250 C   0  0  0  0  0  0  0  0  0  0  0  0
  -12.7563  -37.2063  -21.8257 C   0  0  0  0  0  0  0  0  0  0  0  0
  -12.4271  -37.1420  -22.9536 O   0  0  0  0  0  0  0  0  0  0  0  0
  -13.9293  -38.0337  -21.3455 C   0  0  0  0  0  0  0  0  0  0  0  0
  -13.7820  -39.4170  -21.7387 N   0  0  0  0  0  0  0  0  0  0  0  0
  -13.0801  -40.3848  -21.0815 C   0  0  0  0  0  0  0  0  0  0  0  0
  -13.4721  -41.5740  -21.6488 C   0  0  0  0  0  0  0  0  0  0  0  0
  -14.3951  -41.2143  -22.6501 C   0  0  0  0  0  0  0  0  0  0  0  0
  -15.0751  -42.1152  -23.4484 N   0  0  0  0  0  0  0  0  0  0  0  0
  -16.6983  -41.8621  -23.7300 S   0  0  0  0  0  0  0  0  0  0  0  0
  -17.3381  -41.5122  -22.4793 O   0  0  0  0  0  0  0  0  0  0  0  0
  -17.1774  -43.0053  -24.4760 O   0  0  0  0  0  0  0  0  0  0  0  0
  -16.6804  -40.5175  -24.7374 N   0  0  0  0  0  0  0  0  0  0  0  0
  -15.9620  -40.7340  -26.0141 C   0  0  0  0  0  0  0  0  0  0  0  0
  -15.7688  -39.4237  -26.7562 C   0  0  0  0  0  0  0  0  0  0  0  0
  -17.0574  -38.6275  -26.8948 C   0  0  0  0  0  0  0  0  0  0  0  0
  -17.7517  -38.4771  -25.5492 C   0  0  0  0  0  0  0  0  0  0  0  0
  -17.9779  -39.8450  -24.9120 C   0  0  0  0  0  0  0  0  0  0  0  0
  -14.5349  -39.8952  -22.7331 N   0  0  0  0  0  0  0  0  0  0  0  0
  1  2  1  0
  2  3  1  0
  2  4  1  0
  4  5  2  0
  4  6  1  0
  6  7  1  0
  7  8  1  0
  8  9  2  0
  9 10  1  0
 10 11  1  0
 11 12  1  0
 12 13  2  0
 12 14  2  0
 12 15  1  0
 15 16  1  0
 16 17  1  0
 17 18  1  0
 18 19  1  0
 19 20  1  0
 10 21  2  0
 21  7  1  0
 20 15  1  0
M  END
>  <energy_score>  (95) 
-8.628476

>  <name>  (95) 
CYTVGLIGRGDJAE-UHFFFAOYSA-N

>  <distance_score>  (95) 
0.973468

>  <original ID>  (95) 
CYTVGLIGRGDJAE-UHFFFAOYSA-N

>  <HIPPO Compound ID>  (95) 
23249

>  <exports>  (95) 
['/opt/xchem-fragalysis-2/maxwin/BulkDock/OUTPUTS/RdRp_knitwork_primer_grip_n_pocket_pure_split1800_batch000_217034.sdf', '/opt/xchem-fragalysis-2/maxwin/BulkDock/OUTPUTS/RdRp_knitwork_primer_grip_n_pocket_pure_fragalysis.sdf']

>  <fragmenstein_mode>  (95) 
expansion

>  <scratch_subdir>  (95) 
/opt/xchem-fragalysis-2/maxwin/BulkDock/SCRATCH/217034/C23249-P68

>  <ref_pdb>  (95) 
d0866a

>  <ref_mols>  (95) 
d0160a,d0866a

>  <original SMILES>  (95) 
CN(C)C(=O)Cn1ccc(NS(=O)(=O)N2CCCCC2)n1

>  <alias>  (95) 
None

>  <tags>  (95) 
['Primer grip/N-pocket merge', 'AC curated INTERESTING', 'Knitwork pure merge', 'Fragmenstein placed', 'acceptable']

>  <fragmenstein_outcome>  (95) 
acceptable

>  <csv_name>  (95) 
RdRp_knitwork_primer_grip_n_pocket_pure_split1800_batch000.csv

>  <HIPPO Pose ID>  (95) 
83148

>  <SLURM_JOB_NAME>  (95) 
BulkDock.place:Flavi_NS5_RdRp:RdRp_knitwork_primer_grip_n_pocket_pure_split1800_batch000

>  <fragmenstein_runtime>  (95) 
4.66975

>  <fragmenstein_error>  (95) 
None

>  <SLURM_JOB_ID>  (95) 
217034

>  <inchikey>  (95) 
CYTVGLIGRGDJAE-UHFFFAOYSA-N

$$$$
