ver_1.2
     RDKit          3D

 11 12  0  0  0  0  0  0  0  0999 V2000
    2.5535   -1.0468    0.1450 C   0  0  0  0  0  0  0  0  0  0  0  0
    1.1809   -1.0676   -0.0031 C   0  0  0  0  0  0  0  0  0  0  0  0
    0.4407    0.0212    0.3910 C   0  0  0  0  0  0  0  0  0  0  0  0
   -1.0106   -0.0126    0.2293 C   0  0  0  0  0  0  0  0  0  0  0  0
   -1.9088    0.9827    0.5672 C   0  0  0  0  0  0  0  0  0  0  0  0
   -3.1599    0.5583    0.2574 N   0  0  0  0  0  0  0  0  0  0  0  0
   -3.0076   -0.6656   -0.2545 C   0  0  0  0  0  0  0  0  0  0  0  0
   -1.7202   -1.0440   -0.2871 N   0  0  0  0  0  0  0  0  0  0  0  0
    1.0604    1.1098    0.9230 C   0  0  0  0  0  0  0  0  0  0  0  0
    2.4335    1.1208    1.0670 C   0  0  0  0  0  0  0  0  0  0  0  0
    3.1379    0.0439    0.6743 N   0  0  0  0  0  0  0  0  0  0  0  0
  1  2  2  0
  2  3  1  0
  3  4  1  0
  4  5  2  0
  5  6  1  0
  6  7  2  0
  7  8  1  0
  3  9  2  0
  9 10  1  0
 10 11  2  0
 11  1  1  0
  8  4  1  0
M  END
>  <ref_url>  (1) 
https://hippo.winokan.com

>  <submitter_name>  (1) 
Max Winokan

>  <submitter_email>  (1) 
max.winokan@diamond.ac.uk

>  <submitter_institution>  (1) 
DLS

>  <generation_date>  (1) 
2024-12-19

>  <method>  (1) 
Curated_DF

>  <SLURM_JOB_ID>  (1) 
SLURM_JOB_ID

>  <SLURM_JOB_NAME>  (1) 
SLURM_JOB_NAME

>  <csv_name>  (1) 
csv_name

>  <scratch_subdir>  (1) 
scratch_subdir

>  <fragmenstein_runtime>  (1) 
fragmenstein_runtime

>  <fragmenstein_outcome>  (1) 
fragmenstein_outcome

>  <fragmenstein_mode>  (1) 
fragmenstein_mode

>  <fragmenstein_error>  (1) 
fragmenstein_error

>  <exports>  (1) 
exports

>  <HIPPO Pose ID>  (1) 
HIPPO Pose ID

>  <HIPPO Compound ID>  (1) 
HIPPO Compound ID

>  <smiles>  (1) 
smiles

>  <ref_pdb>  (1) 
protein reference

>  <ref_mols>  (1) 
fragment inspirations

>  <original ID>  (1) 
original ID

>  <compound inchikey>  (1) 
compound inchikey

$$$$
RJXWTYLZNOTJGF-UHFFFAOYSA-N
     RDKit          3D

 23 25  0  0  0  0  0  0  0  0999 V2000
  -14.5439  -69.4104  -22.7753 C   0  0  0  0  0  0  0  0  0  0  0  0
  -15.0748  -69.6071  -21.3715 C   0  0  0  0  0  0  0  0  0  0  0  0
  -13.7978  -69.7749  -20.1308 S   0  0  0  0  0  0  0  0  0  0  0  0
  -12.9423  -68.6163  -20.1662 O   0  0  0  0  0  0  0  0  0  0  0  0
  -14.4229  -70.2015  -18.8930 O   0  0  0  0  0  0  0  0  0  0  0  0
  -12.9320  -71.0941  -20.6528 N   0  0  0  0  0  0  0  0  0  0  0  0
  -11.6985  -70.8880  -21.4120 C   0  0  0  0  0  0  0  0  0  0  0  0
  -10.4269  -70.9191  -20.6118 C   0  0  0  0  0  0  0  0  0  0  0  0
  -10.3351  -71.2249  -19.2554 C   0  0  0  0  0  0  0  0  0  0  0  0
   -9.0779  -71.3122  -18.6458 C   0  0  0  0  0  0  0  0  0  0  0  0
   -7.9180  -71.1056  -19.3983 C   0  0  0  0  0  0  0  0  0  0  0  0
   -6.6231  -71.3016  -18.8323 N   0  0  0  0  0  0  0  0  0  0  0  0
   -6.4686  -72.6474  -18.2651 C   0  0  0  0  0  0  0  0  0  0  0  0
   -6.2542  -73.6681  -19.3741 C   0  0  0  0  0  0  0  0  0  0  0  0
   -4.9197  -73.4056  -20.0510 C   0  0  0  0  0  0  0  0  0  0  0  0
   -4.6130  -71.9403  -20.1698 C   0  0  0  0  0  0  0  0  0  0  0  0
   -3.4567  -71.5550  -20.8652 C   0  0  0  0  0  0  0  0  0  0  0  0
   -3.1421  -70.2122  -21.0275 C   0  0  0  0  0  0  0  0  0  0  0  0
   -3.9925  -69.2479  -20.5082 C   0  0  0  0  0  0  0  0  0  0  0  0
   -5.1263  -69.6227  -19.7844 C   0  0  0  0  0  0  0  0  0  0  0  0
   -5.4499  -70.9659  -19.5884 C   0  0  0  0  0  0  0  0  0  0  0  0
   -8.0134  -70.7420  -20.6933 N   0  0  0  0  0  0  0  0  0  0  0  0
   -9.2311  -70.6615  -21.2662 C   0  0  0  0  0  0  0  0  0  0  0  0
  1  2  1  0
  2  3  1  0
  3  4  2  0
  3  5  2  0
  3  6  1  0
  6  7  1  0
  7  8  1  0
  8  9  2  0
  9 10  1  0
 10 11  2  0
 11 12  1  0
 12 13  1  0
 13 14  1  0
 14 15  1  0
 15 16  1  0
 16 17  2  0
 17 18  1  0
 18 19  2  0
 19 20  1  0
 20 21  2  0
 11 22  1  0
 22 23  2  0
 23  8  1  0
 21 12  1  0
 21 16  1  0
M  END
>  <energy_score>  (1) 
-42.564317

>  <name>  (1) 
RJXWTYLZNOTJGF-UHFFFAOYSA-N

>  <distance_score>  (1) 
0.972852

>  <original ID>  (1) 
RJXWTYLZNOTJGF-UHFFFAOYSA-N

>  <HIPPO Compound ID>  (1) 
778

>  <exports>  (1) 
['/opt/xchem-fragalysis-2/maxwin/BulkDock/OUTPUTS/RdRp_knitwork_thumb_site_2_pure_split4000_batch000_211010.sdf', '/opt/xchem-fragalysis-2/maxwin/BulkDock/OUTPUTS/RdRp_knitwork_thumb_site_2_pure_fragalysis.sdf']

>  <fragmenstein_mode>  (1) 
['expansion']

>  <scratch_subdir>  (1) 
['/opt/xchem-fragalysis-2/maxwin/BulkDock/SCRATCH/211010/C778-P17']

>  <ref_pdb>  (1) 
d0174a

>  <ref_mols>  (1) 
d0174a,d0279a,d0615a

>  <original SMILES>  (1) 
CCS(=O)(=O)NCc1ccc(N2CCCc3ccccc32)nc1

>  <alias>  (1) 
None

>  <tags>  (1) 
['DF curated INTERESTING', 'Thumb Site 2 merge', 'Knitwork pure merge', 'Fragmenstein placed', 'acceptable']

>  <fragmenstein_outcome>  (1) 
['acceptable']

>  <csv_name>  (1) 
RdRp_knitwork_thumb_site_2_pure_split4000_batch000.csv

>  <HIPPO Pose ID>  (1) 
34914

>  <SLURM_JOB_NAME>  (1) 
BulkDock.place:Flavi_NS5_RdRp:RdRp_knitwork_thumb_site_2_pure_split4000_batch000

>  <fragmenstein_runtime>  (1) 
[18.919159412384033]

>  <fragmenstein_error>  (1) 
['']

>  <SLURM_JOB_ID>  (1) 
211010

>  <inchikey>  (1) 
RJXWTYLZNOTJGF-UHFFFAOYSA-N

$$$$
XDGUIPBTSIDPMH-UHFFFAOYSA-N
     RDKit          3D

 14 14  0  0  0  0  0  0  0  0999 V2000
  -14.5475  -69.5114  -22.7115 C   0  0  0  0  0  0  0  0  0  0  0  0
  -15.0670  -69.6742  -21.2985 C   0  0  0  0  0  0  0  0  0  0  0  0
  -13.7611  -69.8666  -20.0919 S   0  0  0  0  0  0  0  0  0  0  0  0
  -12.9109  -68.7052  -20.1398 O   0  0  0  0  0  0  0  0  0  0  0  0
  -14.3539  -70.3177  -18.8474 O   0  0  0  0  0  0  0  0  0  0  0  0
  -12.9275  -71.1869  -20.6920 N   0  0  0  0  0  0  0  0  0  0  0  0
  -11.5009  -71.0321  -21.0268 C   0  0  0  0  0  0  0  0  0  0  0  0
  -10.5297  -71.3124  -19.9003 C   0  0  0  0  0  0  0  0  0  0  0  0
  -10.8471  -72.1894  -18.8537 C   0  0  0  0  0  0  0  0  0  0  0  0
   -9.8882  -72.4862  -17.8907 C   0  0  0  0  0  0  0  0  0  0  0  0
   -8.6352  -71.9933  -17.8939 N   0  0  0  0  0  0  0  0  0  0  0  0
   -8.3322  -71.1599  -18.9098 C   0  0  0  0  0  0  0  0  0  0  0  0
   -9.2298  -70.7898  -19.9050 C   0  0  0  0  0  0  0  0  0  0  0  0
   -8.6831  -69.6722  -21.0670 Cl  0  0  0  0  0  0  0  0  0  0  0  0
  1  2  1  0
  2  3  1  0
  3  4  2  0
  3  5  2  0
  3  6  1  0
  6  7  1  0
  7  8  1  0
  8  9  2  0
  9 10  1  0
 10 11  2  0
 11 12  1  0
 12 13  2  0
 13 14  1  0
 13  8  1  0
M  END
>  <energy_score>  (2) 
-28.755577

>  <name>  (2) 
XDGUIPBTSIDPMH-UHFFFAOYSA-N

>  <distance_score>  (2) 
0.826049

>  <original ID>  (2) 
XDGUIPBTSIDPMH-UHFFFAOYSA-N

>  <HIPPO Compound ID>  (2) 
890

>  <exports>  (2) 
['/opt/xchem-fragalysis-2/maxwin/BulkDock/OUTPUTS/RdRp_knitwork_thumb_site_2_pure_split4000_batch000_211010.sdf', '/opt/xchem-fragalysis-2/maxwin/BulkDock/OUTPUTS/RdRp_knitwork_thumb_site_2_pure_fragalysis.sdf', '/opt/xchem-fragalysis-2/maxwin/RdRp_FFF/curation/Curated_JA_YES.sdf', '/opt/xchem-fragalysis-2/maxwin/RdRp_FFF/quotes/JA_curated_and_manual_ordered.sdf']

>  <fragmenstein_mode>  (2) 
['expansion']

>  <scratch_subdir>  (2) 
['/opt/xchem-fragalysis-2/maxwin/BulkDock/SCRATCH/211010/C890-P29']

>  <ref_pdb>  (2) 
d0279a

>  <ref_mols>  (2) 
d0174a,d0279a

>  <original SMILES>  (2) 
CCS(=O)(=O)NCc1ccncc1Cl

>  <alias>  (2) 
None

>  <tags>  (2) 
['DF curated INTERESTING', 'Thumb Site 2 merge', 'Knitwork pure merge', 'Fragmenstein placed', 'JA curated YES', 'acceptable']

>  <fragmenstein_outcome>  (2) 
['acceptable']

>  <csv_name>  (2) 
RdRp_knitwork_thumb_site_2_pure_split4000_batch000.csv

>  <HIPPO Pose ID>  (2) 
35410

>  <SLURM_JOB_NAME>  (2) 
BulkDock.place:Flavi_NS5_RdRp:RdRp_knitwork_thumb_site_2_pure_split4000_batch000

>  <fragmenstein_runtime>  (2) 
[1.9639780521392822]

>  <fragmenstein_error>  (2) 
['']

>  <SLURM_JOB_ID>  (2) 
211010

>  <inchikey>  (2) 
XDGUIPBTSIDPMH-UHFFFAOYSA-N

$$$$
ZPBHINXHGPMFIS-UHFFFAOYSA-N
     RDKit          3D

 21 22  0  0  0  0  0  0  0  0999 V2000
  -14.6366  -69.5318  -22.7217 C   0  0  0  0  0  0  0  0  0  0  0  0
  -15.1349  -69.6369  -21.2962 C   0  0  0  0  0  0  0  0  0  0  0  0
  -13.8201  -69.8173  -20.0973 S   0  0  0  0  0  0  0  0  0  0  0  0
  -12.9313  -68.6886  -20.1986 O   0  0  0  0  0  0  0  0  0  0  0  0
  -14.4187  -70.1968  -18.8312 O   0  0  0  0  0  0  0  0  0  0  0  0
  -13.0304  -71.1842  -20.6276 N   0  0  0  0  0  0  0  0  0  0  0  0
  -11.7672  -71.0508  -21.3588 C   0  0  0  0  0  0  0  0  0  0  0  0
  -10.5252  -71.1832  -20.5094 C   0  0  0  0  0  0  0  0  0  0  0  0
  -10.4334  -72.1046  -19.4580 C   0  0  0  0  0  0  0  0  0  0  0  0
   -9.2307  -72.2798  -18.7679 C   0  0  0  0  0  0  0  0  0  0  0  0
   -8.0954  -71.5492  -19.1172 C   0  0  0  0  0  0  0  0  0  0  0  0
   -6.9728  -71.8592  -18.4044 O   0  0  0  0  0  0  0  0  0  0  0  0
   -5.8732  -70.9529  -18.4844 C   0  0  0  0  0  0  0  0  0  0  0  0
   -4.9090  -71.1833  -19.6125 C   0  0  0  0  0  0  0  0  0  0  0  0
   -4.5496  -72.4689  -20.0050 C   0  0  0  0  0  0  0  0  0  0  0  0
   -3.5788  -72.6144  -20.9798 C   0  0  0  0  0  0  0  0  0  0  0  0
   -2.9890  -71.4766  -21.5161 C   0  0  0  0  0  0  0  0  0  0  0  0
   -3.3860  -70.2330  -21.0587 C   0  0  0  0  0  0  0  0  0  0  0  0
   -4.3348  -70.0674  -20.1260 N   0  0  0  0  0  0  0  0  0  0  0  0
   -8.1757  -70.6267  -20.1558 C   0  0  0  0  0  0  0  0  0  0  0  0
   -9.3807  -70.4452  -20.8433 C   0  0  0  0  0  0  0  0  0  0  0  0
  1  2  1  0
  2  3  1  0
  3  4  2  0
  3  5  2  0
  3  6  1  0
  6  7  1  0
  7  8  1  0
  8  9  2  0
  9 10  1  0
 10 11  2  0
 11 12  1  0
 12 13  1  0
 13 14  1  0
 14 15  2  0
 15 16  1  0
 16 17  2  0
 17 18  1  0
 18 19  2  0
 11 20  1  0
 20 21  2  0
 21  8  1  0
 19 14  1  0
M  END
>  <energy_score>  (3) 
-36.21249

>  <name>  (3) 
ZPBHINXHGPMFIS-UHFFFAOYSA-N

>  <distance_score>  (3) 
0.974417

>  <original ID>  (3) 
ZPBHINXHGPMFIS-UHFFFAOYSA-N

>  <HIPPO Compound ID>  (3) 
897

>  <exports>  (3) 
['/opt/xchem-fragalysis-2/maxwin/BulkDock/OUTPUTS/RdRp_knitwork_thumb_site_2_pure_split4000_batch000_211010.sdf', '/opt/xchem-fragalysis-2/maxwin/BulkDock/OUTPUTS/RdRp_knitwork_thumb_site_2_pure_fragalysis.sdf', '/opt/xchem-fragalysis-2/maxwin/RdRp_FFF/curation/Curated_JA_YES.sdf', '/opt/xchem-fragalysis-2/maxwin/RdRp_FFF/quotes/JA_curated_and_manual_ordered.sdf']

>  <fragmenstein_mode>  (3) 
['expansion']

>  <scratch_subdir>  (3) 
['/opt/xchem-fragalysis-2/maxwin/BulkDock/SCRATCH/211010/C897-P29']

>  <ref_pdb>  (3) 
d0279a

>  <ref_mols>  (3) 
d0174a,d0279a

>  <original SMILES>  (3) 
CCS(=O)(=O)NCc1ccc(OCc2ccccn2)cc1

>  <alias>  (3) 
None

>  <tags>  (3) 
['DF curated INTERESTING', 'Thumb Site 2 merge', 'Knitwork pure merge', 'Fragmenstein placed', 'JA curated YES', 'acceptable']

>  <fragmenstein_outcome>  (3) 
['acceptable']

>  <csv_name>  (3) 
RdRp_knitwork_thumb_site_2_pure_split4000_batch000.csv

>  <HIPPO Pose ID>  (3) 
35422

>  <SLURM_JOB_NAME>  (3) 
BulkDock.place:Flavi_NS5_RdRp:RdRp_knitwork_thumb_site_2_pure_split4000_batch000

>  <fragmenstein_runtime>  (3) 
[6.457012414932251]

>  <fragmenstein_error>  (3) 
['']

>  <SLURM_JOB_ID>  (3) 
211010

>  <inchikey>  (3) 
ZPBHINXHGPMFIS-UHFFFAOYSA-N

$$$$
KAFGNTYOOWFSHX-UHFFFAOYSA-N
     RDKit          3D

 20 21  0  0  0  0  0  0  0  0999 V2000
  -14.6855  -69.4381  -22.7780 C   0  0  0  0  0  0  0  0  0  0  0  0
  -15.2184  -69.5907  -21.3684 C   0  0  0  0  0  0  0  0  0  0  0  0
  -13.9351  -69.7814  -20.1390 S   0  0  0  0  0  0  0  0  0  0  0  0
  -13.0448  -68.6488  -20.1971 O   0  0  0  0  0  0  0  0  0  0  0  0
  -14.5475  -70.1813  -18.8864 O   0  0  0  0  0  0  0  0  0  0  0  0
  -13.1176  -71.1352  -20.6653 N   0  0  0  0  0  0  0  0  0  0  0  0
  -11.8594  -70.9676  -21.3969 C   0  0  0  0  0  0  0  0  0  0  0  0
  -10.6340  -71.2049  -20.5481 C   0  0  0  0  0  0  0  0  0  0  0  0
  -10.5720  -70.8041  -19.2056 C   0  0  0  0  0  0  0  0  0  0  0  0
   -9.4026  -70.9678  -18.4659 C   0  0  0  0  0  0  0  0  0  0  0  0
   -8.2669  -71.5082  -19.0691 C   0  0  0  0  0  0  0  0  0  0  0  0
   -7.0122  -71.5162  -18.2831 C   0  0  0  0  0  0  0  0  0  0  0  0
   -7.0655  -71.8949  -17.1159 O   0  0  0  0  0  0  0  0  0  0  0  0
   -5.8803  -71.0131  -18.8832 N   0  0  0  0  0  0  0  0  0  0  0  0
   -5.6776  -70.5506  -20.2143 C   0  0  0  0  0  0  0  0  0  0  0  0
   -4.2326  -70.3786  -19.6377 C   0  0  0  0  0  0  0  0  0  0  0  0
   -3.1920  -69.8882  -20.0036 O   0  0  0  0  0  0  0  0  0  0  0  0
   -4.5991  -70.9808  -18.4402 N   0  0  0  0  0  0  0  0  0  0  0  0
   -8.3348  -71.9720  -20.3826 C   0  0  0  0  0  0  0  0  0  0  0  0
   -9.5018  -71.7944  -21.1254 C   0  0  0  0  0  0  0  0  0  0  0  0
  1  2  1  0
  2  3  1  0
  3  4  2  0
  3  5  2  0
  3  6  1  0
  6  7  1  0
  7  8  1  0
  8  9  2  0
  9 10  1  0
 10 11  2  0
 11 12  1  0
 12 13  2  0
 12 14  1  0
 14 15  1  0
 15 16  1  0
 16 17  2  0
 16 18  1  0
 11 19  1  0
 19 20  2  0
 20  8  1  0
 18 14  1  0
M  END
>  <energy_score>  (4) 
-89.018391

>  <name>  (4) 
KAFGNTYOOWFSHX-UHFFFAOYSA-N

>  <distance_score>  (4) 
0.972484

>  <original ID>  (4) 
KAFGNTYOOWFSHX-UHFFFAOYSA-N

>  <HIPPO Compound ID>  (4) 
3098

>  <exports>  (4) 
['/opt/xchem-fragalysis-2/maxwin/BulkDock/OUTPUTS/RdRp_knitwork_thumb_site_2_impure_split4000_batch001_211014.sdf', '/opt/xchem-fragalysis-2/maxwin/BulkDock/OUTPUTS/RdRp_knitwork_thumb_site_2_impure_fragalysis.sdf']

>  <fragmenstein_mode>  (4) 
['expansion']

>  <scratch_subdir>  (4) 
['/opt/xchem-fragalysis-2/maxwin/BulkDock/SCRATCH/211014/C3098-P45']

>  <ref_pdb>  (4) 
d0566a

>  <ref_mols>  (4) 
d0174a,d0566a

>  <original SMILES>  (4) 
CCS(=O)(=O)NCc1ccc(C(=O)N2CC(=O)N2)cc1

>  <alias>  (4) 
None

>  <tags>  (4) 
['DF curated INTERESTING', 'Thumb Site 2 merge', 'Knitwork impure merge', 'Fragmenstein placed', 'JA curated YES', 'acceptable']

>  <fragmenstein_outcome>  (4) 
['acceptable']

>  <csv_name>  (4) 
RdRp_knitwork_thumb_site_2_impure_split4000_batch001.csv

>  <HIPPO Pose ID>  (4) 
35982

>  <SLURM_JOB_NAME>  (4) 
BulkDock.place:Flavi_NS5_RdRp:RdRp_knitwork_thumb_site_2_impure_split4000_batch001

>  <fragmenstein_runtime>  (4) 
[4.798282146453857]

>  <fragmenstein_error>  (4) 
['']

>  <SLURM_JOB_ID>  (4) 
211014

>  <inchikey>  (4) 
KAFGNTYOOWFSHX-UHFFFAOYSA-N

$$$$
WQFINYMUCSQZFC-UHFFFAOYSA-N
     RDKit          3D

 19 20  0  0  0  0  0  0  0  0999 V2000
   -2.2076  -68.7559  -21.7445 C   0  0  0  0  0  0  0  0  0  0  0  0
   -3.1876  -68.9876  -20.6131 C   0  0  0  0  0  0  0  0  0  0  0  0
   -3.8248  -70.2626  -20.7947 O   0  0  0  0  0  0  0  0  0  0  0  0
   -4.7996  -70.5075  -19.8653 C   0  0  0  0  0  0  0  0  0  0  0  0
   -5.0878  -69.7496  -18.9460 O   0  0  0  0  0  0  0  0  0  0  0  0
   -5.4464  -71.8580  -20.1117 C   0  0  0  0  0  0  0  0  0  0  0  0
   -6.8433  -71.7976  -19.6956 N   0  0  0  0  0  0  0  0  0  0  0  0
   -7.7545  -71.3488  -20.6343 N   0  0  0  0  0  0  0  0  0  0  0  0
   -8.9905  -71.2052  -20.2606 C   0  0  0  0  0  0  0  0  0  0  0  0
  -10.0201  -70.7994  -21.2573 C   0  0  0  0  0  0  0  0  0  0  0  0
   -9.8266  -71.0632  -22.6173 C   0  0  0  0  0  0  0  0  0  0  0  0
  -10.8353  -70.7641  -23.5282 C   0  0  0  0  0  0  0  0  0  0  0  0
  -12.0129  -70.2128  -23.0499 C   0  0  0  0  0  0  0  0  0  0  0  0
  -12.2300  -69.9284  -21.7483 N   0  0  0  0  0  0  0  0  0  0  0  0
  -11.2269  -70.2174  -20.8858 C   0  0  0  0  0  0  0  0  0  0  0  0
   -9.4684  -71.4839  -18.8853 C   0  0  0  0  0  0  0  0  0  0  0  0
   -8.5732  -71.9236  -18.0035 C   0  0  0  0  0  0  0  0  0  0  0  0
   -7.1656  -72.1142  -18.3868 C   0  0  0  0  0  0  0  0  0  0  0  0
   -6.3855  -72.5452  -17.5434 O   0  0  0  0  0  0  0  0  0  0  0  0
  1  2  1  0
  2  3  1  0
  3  4  1  0
  4  5  2  0
  4  6  1  0
  6  7  1  0
  7  8  1  0
  8  9  2  0
  9 10  1  0
 10 11  2  0
 11 12  1  0
 12 13  2  0
 13 14  1  0
 14 15  2  0
  9 16  1  0
 16 17  2  0
 17 18  1  0
 18 19  2  0
 18  7  1  0
 15 10  1  0
M  END
>  <energy_score>  (5) 
-81.803279

>  <name>  (5) 
WQFINYMUCSQZFC-UHFFFAOYSA-N

>  <distance_score>  (5) 
0.989507

>  <original ID>  (5) 
WQFINYMUCSQZFC-UHFFFAOYSA-N

>  <HIPPO Compound ID>  (5) 
5226

>  <exports>  (5) 
nan

>  <fragmenstein_mode>  (5) 
expansion

>  <scratch_subdir>  (5) 
/opt/xchem-fragalysis-2/maxwin/BulkDock/SCRATCH/220466/C38668-P218

>  <ref_pdb>  (5) 
d0615a

>  <ref_mols>  (5) 
d0379a,d0615a

>  <original SMILES>  (5) 
CCOC(=O)Cn1nc(-c2cccnc2)ccc1=O

>  <alias>  (5) 
None

>  <tags>  (5) 
['DF curated INTERESTING', 'Knitwork impure merge', 'Fragmenstein placed', 'Green Site/RNA tunnel merge']

>  <fragmenstein_outcome>  (5) 
too moved

>  <csv_name>  (5) 
RdRp_knitwork_green_site_rna_tunnel_impure_split4000_batch015.csv

>  <HIPPO Pose ID>  (5) 
38668

>  <SLURM_JOB_NAME>  (5) 
BulkDock.place:Flavi_NS5_RdRp:RdRp_knitwork_green_site_rna_tunnel_impure_split4000_batch015

>  <fragmenstein_runtime>  (5) 
3.925765

>  <fragmenstein_error>  (5) 
None

>  <SLURM_JOB_ID>  (5) 
220466

>  <inchikey>  (5) 
WQFINYMUCSQZFC-UHFFFAOYSA-N

$$$$
IYFJGUVPMIFAOX-UHFFFAOYSA-N
     RDKit          3D

 17 18  0  0  0  0  0  0  0  0999 V2000
  -14.5215  -69.4170  -22.7872 C   0  0  0  0  0  0  0  0  0  0  0  0
  -15.0796  -69.7334  -21.4178 C   0  0  0  0  0  0  0  0  0  0  0  0
  -13.8602  -69.7723  -20.1085 S   0  0  0  0  0  0  0  0  0  0  0  0
  -13.0815  -68.5608  -20.1304 O   0  0  0  0  0  0  0  0  0  0  0  0
  -14.5149  -70.1999  -18.8874 O   0  0  0  0  0  0  0  0  0  0  0  0
  -12.8549  -71.0275  -20.5044 N   0  0  0  0  0  0  0  0  0  0  0  0
  -11.7729  -70.8094  -21.4639 C   0  0  0  0  0  0  0  0  0  0  0  0
  -10.4635  -71.0696  -20.8077 C   0  0  0  0  0  0  0  0  0  0  0  0
   -9.3243  -71.2889  -21.4283 N   0  0  0  0  0  0  0  0  0  0  0  0
   -8.3987  -71.4913  -20.4418 C   0  0  0  0  0  0  0  0  0  0  0  0
   -7.0387  -71.7830  -20.5595 C   0  0  0  0  0  0  0  0  0  0  0  0
   -6.2920  -71.9481  -19.4004 C   0  0  0  0  0  0  0  0  0  0  0  0
   -4.6081  -72.2619  -19.5503 Cl  0  0  0  0  0  0  0  0  0  0  0  0
   -6.8971  -71.8920  -18.1458 C   0  0  0  0  0  0  0  0  0  0  0  0
   -8.2644  -71.6114  -18.0045 C   0  0  0  0  0  0  0  0  0  0  0  0
   -8.9798  -71.4020  -19.1823 C   0  0  0  0  0  0  0  0  0  0  0  0
  -10.2896  -71.0950  -19.4426 N   0  0  0  0  0  0  0  0  0  0  0  0
  1  2  1  0
  2  3  1  0
  3  4  2  0
  3  5  2  0
  3  6  1  0
  6  7  1  0
  7  8  1  0
  8  9  2  0
  9 10  1  0
 10 11  2  0
 11 12  1  0
 12 13  1  0
 12 14  2  0
 14 15  1  0
 15 16  2  0
 16 17  1  0
 17  8  1  0
 16 10  1  0
M  END
>  <energy_score>  (6) 
-50.163985

>  <name>  (6) 
IYFJGUVPMIFAOX-UHFFFAOYSA-N

>  <distance_score>  (6) 
0.986828

>  <original ID>  (6) 
IYFJGUVPMIFAOX-UHFFFAOYSA-N

>  <HIPPO Compound ID>  (6) 
7755

>  <exports>  (6) 
['/opt/xchem-fragalysis-2/maxwin/RdRp_FFF/quotes/JA_curated_and_manual_ordered.sdf']

>  <fragmenstein_mode>  (6) 
expansion

>  <scratch_subdir>  (6) 
/opt/xchem-fragalysis-2/maxwin/BulkDock/SCRATCH/220466/C39464-P184

>  <ref_pdb>  (6) 
d0174a

>  <ref_mols>  (6) 
d0174a,d0693a

>  <original SMILES>  (6) 
CCS(=O)(=O)NCc1nc2cc(Cl)ccc2[nH]1

>  <alias>  (6) 
None

>  <tags>  (6) 
['DF curated INTERESTING', 'JA curated YES', 'Knitwork impure merge', 'AC curated INTERESTING', 'Fragmenstein placed', 'Green Site/RNA tunnel merge']

>  <fragmenstein_outcome>  (6) 
too moved

>  <csv_name>  (6) 
RdRp_knitwork_green_site_rna_tunnel_impure_split4000_batch015.csv

>  <HIPPO Pose ID>  (6) 
39464

>  <SLURM_JOB_NAME>  (6) 
BulkDock.place:Flavi_NS5_RdRp:RdRp_knitwork_green_site_rna_tunnel_impure_split4000_batch015

>  <fragmenstein_runtime>  (6) 
23.797484

>  <fragmenstein_error>  (6) 
None

>  <SLURM_JOB_ID>  (6) 
220466

>  <inchikey>  (6) 
IYFJGUVPMIFAOX-UHFFFAOYSA-N

$$$$
FUWSPQRSVMNQLD-INIZCTEOSA-N
     RDKit          3D

 24 26  0  0  0  0  0  0  0  0999 V2000
  -15.3905  -69.9645  -22.6276 C   0  0  0  0  0  0  0  0  0  0  0  0
  -14.6850  -68.9275  -21.7884 C   0  0  0  0  0  0  0  0  0  0  0  0
  -13.8422  -69.5912  -20.3594 S   0  0  0  0  0  0  0  0  0  0  0  0
  -12.8001  -68.6678  -19.9822 O   0  0  0  0  0  0  0  0  0  0  0  0
  -14.8051  -70.0486  -19.3801 O   0  0  0  0  0  0  0  0  0  0  0  0
  -13.1220  -70.9745  -20.9545 N   0  0  0  0  0  0  0  0  0  0  0  0
  -11.7426  -70.9189  -21.4378 C   0  0  0  0  0  0  0  0  0  0  0  0
  -10.7497  -71.5293  -20.4345 C   0  0  2  0  0  0  0  0  0  0  0  0
  -11.1775  -71.4458  -18.9605 C   0  0  0  0  0  0  0  0  0  0  0  0
  -10.0743  -71.9549  -18.0438 C   0  0  0  0  0  0  0  0  0  0  0  0
   -8.7870  -71.1935  -18.3190 C   0  0  0  0  0  0  0  0  0  0  0  0
   -8.3660  -71.4032  -19.7087 N   0  0  0  0  0  0  0  0  0  0  0  0
   -7.0615  -70.7803  -19.9980 C   0  0  0  0  0  0  0  0  0  0  0  0
   -5.8362  -71.4816  -19.4448 C   0  0  0  0  0  0  0  0  0  0  0  0
   -5.9587  -72.6973  -18.7482 C   0  0  0  0  0  0  0  0  0  0  0  0
   -4.8452  -73.3504  -18.2442 C   0  0  0  0  0  0  0  0  0  0  0  0
   -3.5800  -72.8324  -18.4816 C   0  0  0  0  0  0  0  0  0  0  0  0
   -3.4098  -71.6566  -19.2213 C   0  0  0  0  0  0  0  0  0  0  0  0
   -2.1136  -71.1896  -19.4826 C   0  0  0  0  0  0  0  0  0  0  0  0
   -1.9035  -70.0230  -20.2107 C   0  0  0  0  0  0  0  0  0  0  0  0
   -2.9911  -69.3041  -20.6810 C   0  0  0  0  0  0  0  0  0  0  0  0
   -4.2868  -69.7513  -20.4116 C   0  0  0  0  0  0  0  0  0  0  0  0
   -4.5356  -70.9475  -19.6995 C   0  0  0  0  0  0  0  0  0  0  0  0
   -9.3746  -70.8704  -20.6386 C   0  0  0  0  0  0  0  0  0  0  0  0
  1  2  1  0
  2  3  1  0
  3  4  2  0
  3  5  2  0
  3  6  1  0
  6  7  1  0
  8  7  1  6
  8  9  1  0
  9 10  1  0
 10 11  1  0
 11 12  1  0
 12 13  1  0
 13 14  1  0
 14 15  2  0
 15 16  1  0
 16 17  2  0
 17 18  1  0
 18 19  2  0
 19 20  1  0
 20 21  2  0
 21 22  1  0
 22 23  2  0
 12 24  1  0
 24  8  1  0
 23 14  1  0
 23 18  1  0
M  END
>  <energy_score>  (7) 
-56.453073

>  <name>  (7) 
FUWSPQRSVMNQLD-INIZCTEOSA-N

>  <distance_score>  (7) 
0.996182

>  <original ID>  (7) 
FUWSPQRSVMNQLD-INIZCTEOSA-N

>  <HIPPO Compound ID>  (7) 
1191

>  <exports>  (7) 
nan

>  <fragmenstein_mode>  (7) 
expansion

>  <scratch_subdir>  (7) 
/opt/xchem-fragalysis-2/maxwin/BulkDock/SCRATCH/220469/C42983-P208

>  <ref_pdb>  (7) 
d0174a

>  <ref_mols>  (7) 
d0174a,d0787a

>  <original SMILES>  (7) 
CCS(=O)(=O)NC[C@@H]1CCCN(Cc2cccc3ccccc23)C1

>  <alias>  (7) 
None

>  <tags>  (7) 
['DF curated INTERESTING', 'Knitwork impure merge', 'AC curated INTERESTING', 'Fragmenstein placed', 'Green Site/RNA tunnel merge']

>  <fragmenstein_outcome>  (7) 
too moved

>  <csv_name>  (7) 
RdRp_knitwork_green_site_rna_tunnel_impure_split4000_batch018.csv

>  <HIPPO Pose ID>  (7) 
42983

>  <SLURM_JOB_NAME>  (7) 
BulkDock.place:Flavi_NS5_RdRp:RdRp_knitwork_green_site_rna_tunnel_impure_split4000_batch018

>  <fragmenstein_runtime>  (7) 
11.348508

>  <fragmenstein_error>  (7) 
None

>  <SLURM_JOB_ID>  (7) 
220469

>  <inchikey>  (7) 
FUWSPQRSVMNQLD-INIZCTEOSA-N

$$$$
XXQBDXPESCLSQC-SSDOTTSWSA-N
     RDKit          3D

 15 15  0  0  0  0  0  0  0  0999 V2000
  -10.9522  -71.4117  -22.4309 C   0  0  0  0  0  0  0  0  0  0  0  0
  -11.3081  -70.6180  -21.1804 C   0  0  1  0  0  0  0  0  0  0  0  0
  -12.6740  -71.0474  -20.6973 N   0  0  0  0  0  0  0  0  0  0  0  0
  -13.6943  -69.8341  -20.1447 S   0  0  0  0  0  0  0  0  0  0  0  0
  -12.9975  -68.5731  -20.1730 O   0  0  0  0  0  0  0  0  0  0  0  0
  -14.2630  -70.3250  -18.9006 O   0  0  0  0  0  0  0  0  0  0  0  0
  -15.0245  -69.7776  -21.3274 C   0  0  0  0  0  0  0  0  0  0  0  0
  -14.4604  -69.7904  -22.6633 C   0  0  0  0  0  0  0  0  0  0  0  0
  -14.0895  -69.8630  -23.7605 N   0  0  0  0  0  0  0  0  0  0  0  0
  -10.2041  -70.8679  -20.1572 C   0  0  0  0  0  0  0  0  0  0  0  0
  -10.4991  -71.6699  -19.1066 N   0  0  0  0  0  0  0  0  0  0  0  0
   -9.4625  -72.0212  -18.3217 C   0  0  0  0  0  0  0  0  0  0  0  0
   -8.1653  -71.6222  -18.5464 C   0  0  0  0  0  0  0  0  0  0  0  0
   -7.9723  -70.8089  -19.6367 C   0  0  0  0  0  0  0  0  0  0  0  0
   -8.9681  -70.4130  -20.4479 N   0  0  0  0  0  0  0  0  0  0  0  0
  2  1  1  6
  2  3  1  0
  3  4  1  0
  4  5  2  0
  4  6  2  0
  4  7  1  0
  7  8  1  0
  8  9  3  0
  2 10  1  0
 10 11  2  0
 11 12  1  0
 12 13  2  0
 13 14  1  0
 14 15  2  0
 15 10  1  0
M  END
>  <energy_score>  (8) 
-32.53111

>  <name>  (8) 
XXQBDXPESCLSQC-SSDOTTSWSA-N

>  <distance_score>  (8) 
0.781223

>  <original ID>  (8) 
XXQBDXPESCLSQC-SSDOTTSWSA-N

>  <HIPPO Compound ID>  (8) 
2664

>  <exports>  (8) 
['/opt/xchem-fragalysis-2/maxwin/RdRp_FFF/quotes/JA_curated_and_manual_ordered.sdf']

>  <fragmenstein_mode>  (8) 
expansion

>  <scratch_subdir>  (8) 
/opt/xchem-fragalysis-2/maxwin/BulkDock/SCRATCH/220461/C44277-P206

>  <ref_pdb>  (8) 
d0587a

>  <ref_mols>  (8) 
d0174a,d0587a

>  <original SMILES>  (8) 
C[C@@H](NS(=O)(=O)CC#N)c1ncccn1

>  <alias>  (8) 
None

>  <tags>  (8) 
['DF curated INTERESTING', 'JA curated YES', 'Knitwork impure merge', 'Fragmenstein placed', 'Green Site/RNA tunnel merge']

>  <fragmenstein_outcome>  (8) 
too moved

>  <csv_name>  (8) 
RdRp_knitwork_green_site_rna_tunnel_impure_split4000_batch010.csv

>  <HIPPO Pose ID>  (8) 
44277

>  <SLURM_JOB_NAME>  (8) 
BulkDock.place:Flavi_NS5_RdRp:RdRp_knitwork_green_site_rna_tunnel_impure_split4000_batch010

>  <fragmenstein_runtime>  (8) 
11.57422

>  <fragmenstein_error>  (8) 
None

>  <SLURM_JOB_ID>  (8) 
220461

>  <inchikey>  (8) 
XXQBDXPESCLSQC-SSDOTTSWSA-N

$$$$
RBCYBRWRXNYUSR-UHFFFAOYSA-N
     RDKit          3D

 13 14  0  0  0  0  0  0  0  0999 V2000
  -14.9914  -41.6951  -23.8579 C   0  0  0  0  0  0  0  0  0  0  0  0
  -15.3136  -42.5927  -22.8415 C   0  0  0  0  0  0  0  0  0  0  0  0
  -16.3001  -43.5670  -23.0347 C   0  0  0  0  0  0  0  0  0  0  0  0
  -16.6733  -44.4755  -22.0342 N   0  0  0  0  0  0  0  0  0  0  0  0
  -17.7932  -45.3944  -22.2734 C   0  0  0  0  0  0  0  0  0  0  0  0
  -18.1618  -46.2954  -21.0959 C   0  0  0  0  0  0  0  0  0  0  0  0
  -18.4535  -45.5215  -19.8218 C   0  0  0  0  0  0  0  0  0  0  0  0
  -17.2778  -45.3604  -19.0328 O   0  0  0  0  0  0  0  0  0  0  0  0
  -16.3427  -44.4213  -19.5711 C   0  0  0  0  0  0  0  0  0  0  0  0
  -15.7484  -44.8226  -20.9327 C   0  0  0  0  0  0  0  0  0  0  0  0
  -16.9160  -43.5330  -24.2953 C   0  0  0  0  0  0  0  0  0  0  0  0
  -16.5192  -42.6124  -25.2629 C   0  0  0  0  0  0  0  0  0  0  0  0
  -15.5701  -41.6854  -25.0691 N   0  0  0  0  0  0  0  0  0  0  0  0
  1  2  2  0
  2  3  1  0
  3  4  1  0
  4  5  1  0
  5  6  1  0
  6  7  1  0
  7  8  1  0
  8  9  1  0
  9 10  1  0
  3 11  2  0
 11 12  1  0
 12 13  2  0
 13  1  1  0
 10  4  1  0
M  END
>  <energy_score>  (9) 
-27.769108

>  <name>  (9) 
RBCYBRWRXNYUSR-UHFFFAOYSA-N

>  <distance_score>  (9) 
0.830006

>  <original ID>  (9) 
RBCYBRWRXNYUSR-UHFFFAOYSA-N

>  <HIPPO Compound ID>  (9) 
14910

>  <exports>  (9) 
['/opt/xchem-fragalysis-2/maxwin/BulkDock/OUTPUTS/RdRp_knitwork_primer_grip_n_pocket_impure_split4000_batch002_211034.sdf', '/opt/xchem-fragalysis-2/maxwin/BulkDock/OUTPUTS/RdRp_knitwork_primer_grip_n_pocket_impure_fragalysis.sdf']

>  <fragmenstein_mode>  (9) 
['expansion']

>  <scratch_subdir>  (9) 
['/opt/xchem-fragalysis-2/maxwin/BulkDock/SCRATCH/211034/C14910-P26']

>  <ref_pdb>  (9) 
d0254a

>  <ref_mols>  (9) 
d0191a,d0254a

>  <original SMILES>  (9) 
c1cc(N2CCCOCC2)ccn1

>  <alias>  (9) 
None

>  <tags>  (9) 
['DF curated INTERESTING', 'Primer grip/N-pocket merge', 'Knitwork impure merge', 'Fragmenstein placed', 'acceptable']

>  <fragmenstein_outcome>  (9) 
['acceptable']

>  <csv_name>  (9) 
RdRp_knitwork_primer_grip_n_pocket_impure_split4000_batch002.csv

>  <HIPPO Pose ID>  (9) 
45394

>  <SLURM_JOB_NAME>  (9) 
BulkDock.place:Flavi_NS5_RdRp:RdRp_knitwork_primer_grip_n_pocket_impure_split4000_batch002

>  <fragmenstein_runtime>  (9) 
[2.976625442504883]

>  <fragmenstein_error>  (9) 
['']

>  <SLURM_JOB_ID>  (9) 
211034

>  <inchikey>  (9) 
RBCYBRWRXNYUSR-UHFFFAOYSA-N

$$$$
ORGCRSJVVRKQHS-UHFFFAOYSA-N
     RDKit          3D

 14 16  0  0  0  0  0  0  0  0999 V2000
  -16.4674  -41.7463  -26.2781 C   0  0  0  0  0  0  0  0  0  0  0  0
  -16.0354  -41.7900  -25.0369 N   0  0  0  0  0  0  0  0  0  0  0  0
  -15.3289  -40.6168  -24.8566 C   0  0  0  0  0  0  0  0  0  0  0  0
  -14.5994  -40.3058  -23.6160 C   0  0  0  0  0  0  0  0  0  0  0  0
  -14.0050  -39.1143  -23.3938 N   0  0  0  0  0  0  0  0  0  0  0  0
  -13.4202  -39.2566  -22.1941 N   0  0  0  0  0  0  0  0  0  0  0  0
  -13.5846  -40.4923  -21.6597 C   0  0  0  0  0  0  0  0  0  0  0  0
  -14.3761  -41.1992  -22.5394 C   0  0  0  0  0  0  0  0  0  0  0  0
  -14.7685  -42.6122  -22.2939 C   0  0  0  0  0  0  0  0  0  0  0  0
  -14.5993  -42.9673  -20.8006 C   0  0  0  0  0  0  0  0  0  0  0  0
  -13.2723  -42.4691  -20.1992 C   0  0  0  0  0  0  0  0  0  0  0  0
  -13.0430  -40.9555  -20.3617 C   0  0  0  0  0  0  0  0  0  0  0  0
  -15.3982  -39.8438  -25.9953 C   0  0  0  0  0  0  0  0  0  0  0  0
  -16.0994  -40.5858  -26.9011 N   0  0  0  0  0  0  0  0  0  0  0  0
  1  2  2  0
  2  3  1  0
  3  4  1  0
  4  5  2  0
  5  6  1  0
  6  7  1  0
  7  8  2  0
  8  9  1  0
  9 10  1  0
 10 11  1  0
 11 12  1  0
  3 13  2  0
 13 14  1  0
 14  1  1  0
  8  4  1  0
 12  7  1  0
M  END
>  <energy_score>  (10) 
-46.24067

>  <name>  (10) 
ORGCRSJVVRKQHS-UHFFFAOYSA-N

>  <distance_score>  (10) 
0.927374

>  <original ID>  (10) 
ORGCRSJVVRKQHS-UHFFFAOYSA-N

>  <HIPPO Compound ID>  (10) 
23454

>  <exports>  (10) 
nan

>  <fragmenstein_mode>  (10) 
expansion

>  <scratch_subdir>  (10) 
/opt/xchem-fragalysis-2/maxwin/BulkDock/SCRATCH/220454/C47755-P200

>  <ref_pdb>  (10) 
d0160a

>  <ref_mols>  (10) 
d0160a,z0103a

>  <original SMILES>  (10) 
c1nc(-c2n[nH]c3c2CCCC3)c[nH]1

>  <alias>  (10) 
None

>  <tags>  (10) 
['DF curated INTERESTING', 'Knitwork impure merge', 'AC curated INTERESTING', 'Fragmenstein placed', 'Green Site/RNA tunnel merge']

>  <fragmenstein_outcome>  (10) 
too moved

>  <csv_name>  (10) 
RdRp_knitwork_green_site_rna_tunnel_impure_split4000_batch003.csv

>  <HIPPO Pose ID>  (10) 
47755

>  <SLURM_JOB_NAME>  (10) 
BulkDock.place:Flavi_NS5_RdRp:RdRp_knitwork_green_site_rna_tunnel_impure_split4000_batch003

>  <fragmenstein_runtime>  (10) 
12.72065

>  <fragmenstein_error>  (10) 
None

>  <SLURM_JOB_ID>  (10) 
220454

>  <inchikey>  (10) 
ORGCRSJVVRKQHS-UHFFFAOYSA-N

$$$$
WOVNUBZQLSDEHQ-LBPRGKRZSA-N
     RDKit          3D

 23 25  0  0  0  0  0  0  0  0999 V2000
  -14.4912  -69.7809  -22.9163 C   0  0  0  0  0  0  0  0  0  0  0  0
  -15.0875  -70.0413  -21.5493 C   0  0  0  0  0  0  0  0  0  0  0  0
  -13.9134  -69.7824  -20.2300 S   0  0  0  0  0  0  0  0  0  0  0  0
  -13.3653  -68.4556  -20.3520 O   0  0  0  0  0  0  0  0  0  0  0  0
  -14.4820  -70.2520  -18.9829 O   0  0  0  0  0  0  0  0  0  0  0  0
  -12.6909  -70.8964  -20.6078 N   0  0  0  0  0  0  0  0  0  0  0  0
  -11.3019  -70.3572  -20.4924 C   0  0  0  0  0  0  0  0  0  0  0  0
  -10.2727  -71.4030  -20.0437 C   0  0  1  0  0  0  0  0  0  0  0  0
   -8.8425  -70.8599  -20.2939 C   0  0  0  0  0  0  0  0  0  0  0  0
   -7.8301  -71.8604  -19.9192 N   0  0  0  0  0  0  0  0  0  0  0  0
   -6.5038  -71.4440  -20.0772 C   0  0  0  0  0  0  0  0  0  0  0  0
   -6.2378  -70.1290  -20.1347 N   0  0  0  0  0  0  0  0  0  0  0  0
   -4.9401  -69.7558  -20.1905 C   0  0  0  0  0  0  0  0  0  0  0  0
   -3.9028  -70.6460  -20.2146 C   0  0  0  0  0  0  0  0  0  0  0  0
   -2.6334  -70.2422  -20.2478 F   0  0  0  0  0  0  0  0  0  0  0  0
   -4.2548  -71.9665  -20.1600 C   0  0  0  0  0  0  0  0  0  0  0  0
   -5.5390  -72.3836  -20.0695 N   0  0  0  0  0  0  0  0  0  0  0  0
   -7.9509  -72.4724  -18.5907 C   0  0  0  0  0  0  0  0  0  0  0  0
   -9.2796  -72.2887  -17.9492 C   0  0  0  0  0  0  0  0  0  0  0  0
   -9.7362  -72.5179  -16.6717 C   0  0  0  0  0  0  0  0  0  0  0  0
  -11.0356  -72.1059  -16.5471 N   0  0  0  0  0  0  0  0  0  0  0  0
  -11.3740  -71.6573  -17.7364 C   0  0  0  0  0  0  0  0  0  0  0  0
  -10.3535  -71.7700  -18.6291 N   0  0  0  0  0  0  0  0  0  0  0  0
  1  2  1  0
  2  3  1  0
  3  4  2  0
  3  5  2  0
  3  6  1  0
  6  7  1  0
  8  7  1  1
  8  9  1  0
  9 10  1  0
 10 11  1  0
 11 12  2  0
 12 13  1  0
 13 14  2  0
 14 15  1  0
 14 16  1  0
 16 17  2  0
 10 18  1  0
 18 19  1  0
 19 20  2  0
 20 21  1  0
 21 22  2  0
 22 23  1  0
 23  8  1  0
 17 11  1  0
 23 19  1  0
M  END
>  <energy_score>  (11) 
-41.904217

>  <name>  (11) 
WOVNUBZQLSDEHQ-LBPRGKRZSA-N

>  <distance_score>  (11) 
0.892961

>  <original ID>  (11) 
WOVNUBZQLSDEHQ-LBPRGKRZSA-N

>  <HIPPO Compound ID>  (11) 
3914

>  <exports>  (11) 
nan

>  <fragmenstein_mode>  (11) 
expansion

>  <scratch_subdir>  (11) 
/opt/xchem-fragalysis-2/maxwin/BulkDock/SCRATCH/217082/C48890-P136

>  <ref_pdb>  (11) 
d0587a

>  <ref_mols>  (11) 
d0174a,d0587a

>  <original SMILES>  (11) 
CCS(=O)(=O)NC[C@H]1CN(c2ncc(F)cn2)Cc2cncn21

>  <alias>  (11) 
None

>  <tags>  (11) 
['DF curated INTERESTING', 'AC curated INTERESTING', 'Knitwork pure merge', 'Fragmenstein placed', 'Green Site/RNA tunnel merge']

>  <fragmenstein_outcome>  (11) 
too moved

>  <csv_name>  (11) 
RdRp_knitwork_green_site_rna_tunnel_pure_split4000_batch011.csv

>  <HIPPO Pose ID>  (11) 
48890

>  <SLURM_JOB_NAME>  (11) 
BulkDock.place:Flavi_NS5_RdRp:RdRp_knitwork_green_site_rna_tunnel_pure_split4000_batch011

>  <fragmenstein_runtime>  (11) 
7.601841

>  <fragmenstein_error>  (11) 
None

>  <SLURM_JOB_ID>  (11) 
217082

>  <inchikey>  (11) 
WOVNUBZQLSDEHQ-LBPRGKRZSA-N

$$$$
PQHDSDYOZFSKLV-IVZWLZJFSA-N
     RDKit          3D

 14 15  0  0  0  0  0  0  0  0999 V2000
  -14.4967  -69.6862  -22.7695 C   0  0  0  0  0  0  0  0  0  0  0  0
  -15.1186  -69.8694  -21.4006 C   0  0  0  0  0  0  0  0  0  0  0  0
  -13.9261  -69.7466  -20.0738 S   0  0  0  0  0  0  0  0  0  0  0  0
  -13.1936  -68.5133  -20.2095 O   0  0  0  0  0  0  0  0  0  0  0  0
  -14.5731  -70.1063  -18.8266 O   0  0  0  0  0  0  0  0  0  0  0  0
  -12.8903  -71.0348  -20.3827 N   0  0  0  0  0  0  0  0  0  0  0  0
  -11.4891  -70.6991  -20.7332 C   0  0  0  0  0  0  0  0  0  0  0  0
  -10.5614  -71.8687  -20.3529 C   0  0  1  0  0  0  0  0  0  0  0  0
   -9.1541  -71.6766  -20.9325 C   0  0  0  0  0  0  0  0  0  0  0  0
   -8.2605  -70.8063  -20.0561 C   0  0  0  0  0  0  0  0  0  0  0  0
   -8.0095  -71.4826  -18.7134 C   0  0  0  0  0  0  0  0  0  0  0  0
   -9.2609  -71.9773  -18.0614 C   0  0  1  0  0  0  0  0  0  0  0  0
  -10.4174  -71.0553  -17.8147 C   0  0  0  0  0  0  0  0  0  0  0  0
  -10.5351  -72.1497  -18.8604 C   0  0  1  0  0  0  0  0  0  0  0  0
  1  2  1  0
  2  3  1  0
  3  4  2  0
  3  5  2  0
  3  6  1  0
  6  7  1  0
  8  7  1  1
  8  9  1  0
  9 10  1  0
 10 11  1  0
 12 11  1  6
 12 13  1  0
 14 13  1  1
 14  8  1  0
 14 12  1  0
M  END
>  <energy_score>  (12) 
-58.046076

>  <name>  (12) 
PQHDSDYOZFSKLV-IVZWLZJFSA-N

>  <distance_score>  (12) 
0.951634

>  <original ID>  (12) 
PQHDSDYOZFSKLV-IVZWLZJFSA-N

>  <HIPPO Compound ID>  (12) 
983

>  <exports>  (12) 
nan

>  <fragmenstein_mode>  (12) 
expansion

>  <scratch_subdir>  (12) 
/opt/xchem-fragalysis-2/maxwin/BulkDock/SCRATCH/220458/C49520-P102

>  <ref_pdb>  (12) 
d0176a

>  <ref_mols>  (12) 
d0174a,d0176a

>  <original SMILES>  (12) 
CCS(=O)(=O)NC[C@H]1CCC[C@H]2C[C@@H]12

>  <alias>  (12) 
None

>  <tags>  (12) 
['DF curated INTERESTING', 'Knitwork impure merge', 'Fragmenstein placed', 'Green Site/RNA tunnel merge']

>  <fragmenstein_outcome>  (12) 
too moved

>  <csv_name>  (12) 
RdRp_knitwork_green_site_rna_tunnel_impure_split4000_batch007.csv

>  <HIPPO Pose ID>  (12) 
49520

>  <SLURM_JOB_NAME>  (12) 
BulkDock.place:Flavi_NS5_RdRp:RdRp_knitwork_green_site_rna_tunnel_impure_split4000_batch007

>  <fragmenstein_runtime>  (12) 
48.654225

>  <fragmenstein_error>  (12) 
None

>  <SLURM_JOB_ID>  (12) 
220458

>  <inchikey>  (12) 
PQHDSDYOZFSKLV-IVZWLZJFSA-N

$$$$
FIMPFXBHOKBSJP-JTQLQIEISA-N
     RDKit          3D

 14 14  0  0  0  0  0  0  0  0999 V2000
  -14.4262  -69.7807  -22.7978 C   0  0  0  0  0  0  0  0  0  0  0  0
  -15.0254  -69.9608  -21.4187 C   0  0  0  0  0  0  0  0  0  0  0  0
  -13.8112  -69.8589  -20.1093 S   0  0  0  0  0  0  0  0  0  0  0  0
  -13.0202  -68.6709  -20.3030 O   0  0  0  0  0  0  0  0  0  0  0  0
  -14.4795  -70.1222  -18.8480 O   0  0  0  0  0  0  0  0  0  0  0  0
  -12.8606  -71.2169  -20.3591 N   0  0  0  0  0  0  0  0  0  0  0  0
  -11.4763  -71.0893  -20.8729 C   0  0  0  0  0  0  0  0  0  0  0  0
  -10.4914  -70.4051  -19.8870 C   0  0  1  0  0  0  0  0  0  0  0  0
  -10.6522  -70.8105  -18.4415 C   0  0  0  0  0  0  0  0  0  0  0  0
   -9.9218  -71.5874  -17.6304 C   0  0  0  0  0  0  0  0  0  0  0  0
   -8.6809  -72.3789  -17.8920 C   0  0  0  0  0  0  0  0  0  0  0  0
   -7.6845  -71.8244  -18.8957 C   0  0  0  0  0  0  0  0  0  0  0  0
   -8.2514  -71.6647  -20.2982 C   0  0  0  0  0  0  0  0  0  0  0  0
   -9.0670  -70.3878  -20.4569 C   0  0  0  0  0  0  0  0  0  0  0  0
  1  2  1  0
  2  3  1  0
  3  4  2  0
  3  5  2  0
  3  6  1  0
  6  7  1  0
  8  7  1  6
  8  9  1  0
  9 10  2  0
 10 11  1  0
 11 12  1  0
 12 13  1  0
 13 14  1  0
 14  8  1  0
M  END
>  <energy_score>  (13) 
-31.589366

>  <name>  (13) 
FIMPFXBHOKBSJP-JTQLQIEISA-N

>  <distance_score>  (13) 
0.738284

>  <original ID>  (13) 
FIMPFXBHOKBSJP-JTQLQIEISA-N

>  <HIPPO Compound ID>  (13) 
1194

>  <exports>  (13) 
['/opt/xchem-fragalysis-2/maxwin/BulkDock/OUTPUTS/RdRp_knitwork_thumb_site_2_impure_split4000_batch000_211013.sdf', '/opt/xchem-fragalysis-2/maxwin/BulkDock/OUTPUTS/RdRp_knitwork_thumb_site_2_impure_fragalysis.sdf']

>  <fragmenstein_mode>  (13) 
['expansion']

>  <scratch_subdir>  (13) 
['/opt/xchem-fragalysis-2/maxwin/BulkDock/SCRATCH/211013/C1194-P18']

>  <ref_pdb>  (13) 
d0176a

>  <ref_mols>  (13) 
d0174a,d0176a

>  <original SMILES>  (13) 
CCS(=O)(=O)NC[C@H]1C=CCCCC1

>  <alias>  (13) 
None

>  <tags>  (13) 
['DF curated INTERESTING', 'Thumb Site 2 merge', 'Knitwork impure merge', 'Fragmenstein placed', 'acceptable']

>  <fragmenstein_outcome>  (13) 
['acceptable']

>  <csv_name>  (13) 
RdRp_knitwork_thumb_site_2_impure_split4000_batch000.csv

>  <HIPPO Pose ID>  (13) 
49572

>  <SLURM_JOB_NAME>  (13) 
BulkDock.place:Flavi_NS5_RdRp:RdRp_knitwork_thumb_site_2_impure_split4000_batch000

>  <fragmenstein_runtime>  (13) 
[2.4320366382598877]

>  <fragmenstein_error>  (13) 
['']

>  <SLURM_JOB_ID>  (13) 
211013

>  <inchikey>  (13) 
FIMPFXBHOKBSJP-JTQLQIEISA-N

$$$$
WLRKTYFDLUYNAQ-WFASDCNBSA-N
     RDKit          3D

 22 24  0  0  0  0  0  0  0  0999 V2000
  -12.9768  -68.8990  -22.8149 C   0  0  0  0  0  0  0  0  0  0  0  0
  -14.2242  -69.2522  -22.0433 C   0  0  1  0  0  0  0  0  0  0  0  0
  -15.1782  -70.0744  -22.8841 C   0  0  0  0  0  0  0  0  0  0  0  0
  -16.4784  -70.2994  -22.4438 C   0  0  0  0  0  0  0  0  0  0  0  0
  -17.4632  -70.6571  -23.3575 C   0  0  0  0  0  0  0  0  0  0  0  0
  -17.1851  -70.7524  -24.7152 C   0  0  0  0  0  0  0  0  0  0  0  0
  -15.8840  -70.6404  -25.1534 C   0  0  0  0  0  0  0  0  0  0  0  0
  -14.8841  -70.3512  -24.2391 C   0  0  0  0  0  0  0  0  0  0  0  0
  -13.7976  -69.8746  -20.3988 S   0  0  0  0  0  0  0  0  0  0  0  0
  -12.9005  -68.9115  -19.7967 O   0  0  0  0  0  0  0  0  0  0  0  0
  -14.9952  -70.2293  -19.6678 O   0  0  0  0  0  0  0  0  0  0  0  0
  -12.9387  -71.2747  -20.5963 N   0  0  0  0  0  0  0  0  0  0  0  0
  -11.5543  -71.2091  -21.1287 C   0  0  2  0  0  0  0  0  0  0  0  0
  -11.4245  -71.9532  -22.4652 C   0  0  0  0  0  0  0  0  0  0  0  0
  -12.3639  -72.8896  -22.7474 N   0  0  0  0  0  0  0  0  0  0  0  0
  -12.2593  -73.4980  -23.9441 C   0  0  0  0  0  0  0  0  0  0  0  0
  -11.2866  -73.1957  -24.8668 C   0  0  0  0  0  0  0  0  0  0  0  0
  -10.3937  -72.2194  -24.4938 C   0  0  0  0  0  0  0  0  0  0  0  0
  -10.4371  -71.5866  -23.3064 N   0  0  0  0  0  0  0  0  0  0  0  0
  -10.6230  -71.8429  -20.1263 C   0  0  0  0  0  0  0  0  0  0  0  0
  -10.2578  -71.1273  -18.8491 C   0  0  0  0  0  0  0  0  0  0  0  0
   -9.2290  -71.2876  -19.9349 C   0  0  0  0  0  0  0  0  0  0  0  0
  2  1  1  6
  2  3  1  0
  3  4  2  0
  4  5  1  0
  5  6  2  0
  6  7  1  0
  7  8  2  0
  2  9  1  0
  9 10  2  0
  9 11  2  0
  9 12  1  0
 13 12  1  1
 13 14  1  0
 14 15  2  0
 15 16  1  0
 16 17  2  0
 17 18  1  0
 18 19  2  0
 13 20  1  0
 20 21  1  0
 21 22  1  0
  8  3  1  0
 19 14  1  0
 22 20  1  0
M  END
>  <energy_score>  (14) 
-48.472573

>  <name>  (14) 
WLRKTYFDLUYNAQ-WFASDCNBSA-N

>  <distance_score>  (14) 
0.9886

>  <original ID>  (14) 
WLRKTYFDLUYNAQ-WFASDCNBSA-N

>  <HIPPO Compound ID>  (14) 
5802

>  <exports>  (14) 
['/opt/xchem-fragalysis-2/maxwin/BulkDock/OUTPUTS/RdRp_knitwork_thumb_site_2_impure_split4000_batch001_211014.sdf', '/opt/xchem-fragalysis-2/maxwin/BulkDock/OUTPUTS/RdRp_knitwork_thumb_site_2_impure_fragalysis.sdf']

>  <fragmenstein_mode>  (14) 
['expansion']

>  <scratch_subdir>  (14) 
['/opt/xchem-fragalysis-2/maxwin/BulkDock/SCRATCH/211014/C5802-P48']

>  <ref_pdb>  (14) 
d0587a

>  <ref_mols>  (14) 
d0174a,d0587a

>  <original SMILES>  (14) 
C[C@@H](c1ccccc1)S(=O)(=O)N[C@H](c1ncccn1)C1CC1

>  <alias>  (14) 
None

>  <tags>  (14) 
['DF curated INTERESTING', 'Thumb Site 2 merge', 'Knitwork impure merge', 'AC curated INTERESTING', 'Fragmenstein placed', 'acceptable']

>  <fragmenstein_outcome>  (14) 
['acceptable']

>  <csv_name>  (14) 
RdRp_knitwork_thumb_site_2_impure_split4000_batch001.csv

>  <HIPPO Pose ID>  (14) 
49666

>  <SLURM_JOB_NAME>  (14) 
BulkDock.place:Flavi_NS5_RdRp:RdRp_knitwork_thumb_site_2_impure_split4000_batch001

>  <fragmenstein_runtime>  (14) 
[69.25387573242188]

>  <fragmenstein_error>  (14) 
['']

>  <SLURM_JOB_ID>  (14) 
211014

>  <inchikey>  (14) 
WLRKTYFDLUYNAQ-WFASDCNBSA-N

$$$$
GZOFUQGTEOHYBG-SNVBAGLBSA-N
     RDKit          3D

 15 16  0  0  0  0  0  0  0  0999 V2000
  -14.3387  -69.6496  -22.8217 C   0  0  0  0  0  0  0  0  0  0  0  0
  -14.9211  -69.9045  -21.4486 C   0  0  0  0  0  0  0  0  0  0  0  0
  -13.7178  -69.8362  -20.1254 S   0  0  0  0  0  0  0  0  0  0  0  0
  -12.9257  -68.6418  -20.2655 O   0  0  0  0  0  0  0  0  0  0  0  0
  -14.4124  -70.1284  -18.8841 O   0  0  0  0  0  0  0  0  0  0  0  0
  -12.7548  -71.1720  -20.3744 N   0  0  0  0  0  0  0  0  0  0  0  0
  -11.4844  -71.1072  -21.1099 C   0  0  0  0  0  0  0  0  0  0  0  0
  -10.3257  -70.4827  -20.3059 C   0  0  2  0  0  0  0  0  0  0  0  0
   -9.0506  -70.4453  -21.1669 C   0  0  0  0  0  0  0  0  0  0  0  0
   -8.3961  -71.8199  -21.3485 C   0  0  0  0  0  0  0  0  0  0  0  0
   -8.6077  -72.7636  -20.1674 C   0  0  0  0  0  0  0  0  0  0  0  0
   -8.7754  -71.9599  -18.9162 C   0  0  0  0  0  0  0  0  0  0  0  0
   -8.2603  -72.5010  -17.6046 C   0  0  0  0  0  0  0  0  0  0  0  0
   -7.5004  -71.4171  -18.3081 C   0  0  0  0  0  0  0  0  0  0  0  0
  -10.0353  -71.1124  -18.9196 C   0  0  0  0  0  0  0  0  0  0  0  0
  1  2  1  0
  2  3  1  0
  3  4  2  0
  3  5  2  0
  3  6  1  0
  6  7  1  0
  8  7  1  6
  8  9  1  0
  9 10  1  0
 10 11  1  0
 11 12  1  0
 12 13  1  0
 13 14  1  0
 12 15  1  0
 15  8  1  0
 14 12  1  0
M  END
>  <energy_score>  (15) 
-77.484017

>  <name>  (15) 
GZOFUQGTEOHYBG-SNVBAGLBSA-N

>  <distance_score>  (15) 
0.895391

>  <original ID>  (15) 
GZOFUQGTEOHYBG-SNVBAGLBSA-N

>  <HIPPO Compound ID>  (15) 
1465

>  <exports>  (15) 
['/opt/xchem-fragalysis-2/maxwin/BulkDock/OUTPUTS/RdRp_knitwork_thumb_site_2_impure_split4000_batch000_211013.sdf', '/opt/xchem-fragalysis-2/maxwin/BulkDock/OUTPUTS/RdRp_knitwork_thumb_site_2_impure_fragalysis.sdf']

>  <fragmenstein_mode>  (15) 
['expansion']

>  <scratch_subdir>  (15) 
['/opt/xchem-fragalysis-2/maxwin/BulkDock/SCRATCH/211013/C1465-P17']

>  <ref_pdb>  (15) 
d0174a

>  <ref_mols>  (15) 
d0174a,d0176a,d0503a,d0759a

>  <original SMILES>  (15) 
CCS(=O)(=O)NC[C@@H]1CCCC2(CC2)C1

>  <alias>  (15) 
None

>  <tags>  (15) 
['DF curated INTERESTING', 'Thumb Site 2 merge', 'Knitwork impure merge', 'Fragmenstein placed', 'acceptable']

>  <fragmenstein_outcome>  (15) 
['acceptable']

>  <csv_name>  (15) 
RdRp_knitwork_thumb_site_2_impure_split4000_batch000.csv

>  <HIPPO Pose ID>  (15) 
49776

>  <SLURM_JOB_NAME>  (15) 
BulkDock.place:Flavi_NS5_RdRp:RdRp_knitwork_thumb_site_2_impure_split4000_batch000

>  <fragmenstein_runtime>  (15) 
[3.1723756790161133]

>  <fragmenstein_error>  (15) 
['']

>  <SLURM_JOB_ID>  (15) 
211013

>  <inchikey>  (15) 
GZOFUQGTEOHYBG-SNVBAGLBSA-N

$$$$
VJAXJNJKELENHP-UHFFFAOYSA-N
     RDKit          3D

 15 15  0  0  0  0  0  0  0  0999 V2000
  -14.7110  -69.4600  -22.6404 C   0  0  0  0  0  0  0  0  0  0  0  0
  -15.2222  -69.6142  -21.2220 C   0  0  0  0  0  0  0  0  0  0  0  0
  -13.9241  -69.7531  -19.9952 S   0  0  0  0  0  0  0  0  0  0  0  0
  -13.0062  -68.6515  -20.1448 O   0  0  0  0  0  0  0  0  0  0  0  0
  -14.5368  -70.0458  -18.7143 O   0  0  0  0  0  0  0  0  0  0  0  0
  -13.1483  -71.1681  -20.4229 N   0  0  0  0  0  0  0  0  0  0  0  0
  -11.9636  -71.0407  -21.2940 C   0  0  0  0  0  0  0  0  0  0  0  0
  -10.6590  -71.1730  -20.5434 C   0  0  0  0  0  0  0  0  0  0  0  0
  -10.7239  -71.7751  -19.3156 N   0  0  0  0  0  0  0  0  0  0  0  0
   -9.5706  -71.8798  -18.6183 C   0  0  0  0  0  0  0  0  0  0  0  0
   -8.3493  -71.4150  -19.0743 C   0  0  0  0  0  0  0  0  0  0  0  0
   -8.3012  -70.8178  -20.3299 C   0  0  0  0  0  0  0  0  0  0  0  0
   -9.4608  -70.7211  -21.0960 C   0  0  0  0  0  0  0  0  0  0  0  0
   -9.3454  -70.1014  -22.3058 O   0  0  0  0  0  0  0  0  0  0  0  0
   -9.8041  -70.8714  -23.4158 C   0  0  0  0  0  0  0  0  0  0  0  0
  1  2  1  0
  2  3  1  0
  3  4  2  0
  3  5  2  0
  3  6  1  0
  6  7  1  0
  7  8  1  0
  8  9  2  0
  9 10  1  0
 10 11  2  0
 11 12  1  0
 12 13  2  0
 13 14  1  0
 14 15  1  0
 13  8  1  0
M  END
>  <energy_score>  (16) 
-32.130172

>  <name>  (16) 
VJAXJNJKELENHP-UHFFFAOYSA-N

>  <distance_score>  (16) 
0.788304

>  <original ID>  (16) 
VJAXJNJKELENHP-UHFFFAOYSA-N

>  <HIPPO Compound ID>  (16) 
772

>  <exports>  (16) 
['/opt/xchem-fragalysis-2/maxwin/BulkDock/OUTPUTS/RdRp_knitwork_thumb_site_2_pure_split4000_batch000_211010.sdf', '/opt/xchem-fragalysis-2/maxwin/BulkDock/OUTPUTS/RdRp_knitwork_thumb_site_2_pure_fragalysis.sdf', '/opt/xchem-fragalysis-2/maxwin/RdRp_FFF/quotes/JA_curated_and_manual_ordered.sdf']

>  <fragmenstein_mode>  (16) 
['expansion']

>  <scratch_subdir>  (16) 
['/opt/xchem-fragalysis-2/maxwin/BulkDock/SCRATCH/211010/C772-P50']

>  <ref_pdb>  (16) 
d0615a

>  <ref_mols>  (16) 
d0174a,d0615a

>  <original SMILES>  (16) 
CCS(=O)(=O)NCc1ncccc1OC

>  <alias>  (16) 
None

>  <tags>  (16) 
['DF curated INTERESTING', 'Thumb Site 2 merge', 'Knitwork pure merge', 'Fragmenstein placed', 'JA curated YES', 'acceptable']

>  <fragmenstein_outcome>  (16) 
['acceptable']

>  <csv_name>  (16) 
RdRp_knitwork_thumb_site_2_pure_split4000_batch000.csv

>  <HIPPO Pose ID>  (16) 
50417

>  <SLURM_JOB_NAME>  (16) 
BulkDock.place:Flavi_NS5_RdRp:RdRp_knitwork_thumb_site_2_pure_split4000_batch000

>  <fragmenstein_runtime>  (16) 
[1.7414286136627197]

>  <fragmenstein_error>  (16) 
['']

>  <SLURM_JOB_ID>  (16) 
211010

>  <inchikey>  (16) 
VJAXJNJKELENHP-UHFFFAOYSA-N

$$$$
VUWLOCLKMVGYPC-UHFFFAOYSA-N
     RDKit          3D

 14 14  0  0  0  0  0  0  0  0999 V2000
  -14.6105  -69.4454  -22.7173 C   0  0  0  0  0  0  0  0  0  0  0  0
  -15.1063  -69.6368  -21.2984 C   0  0  0  0  0  0  0  0  0  0  0  0
  -13.7876  -69.8159  -20.1007 S   0  0  0  0  0  0  0  0  0  0  0  0
  -12.8961  -68.6876  -20.2059 O   0  0  0  0  0  0  0  0  0  0  0  0
  -14.3816  -70.1879  -18.8308 O   0  0  0  0  0  0  0  0  0  0  0  0
  -12.9957  -71.1914  -20.6377 N   0  0  0  0  0  0  0  0  0  0  0  0
  -11.7141  -70.9944  -21.3610 C   0  0  0  0  0  0  0  0  0  0  0  0
  -10.5123  -71.1083  -20.4508 C   0  0  0  0  0  0  0  0  0  0  0  0
  -10.6838  -71.6977  -19.2298 N   0  0  0  0  0  0  0  0  0  0  0  0
   -9.5787  -71.8356  -18.4605 C   0  0  0  0  0  0  0  0  0  0  0  0
   -8.3093  -71.4267  -18.8458 C   0  0  0  0  0  0  0  0  0  0  0  0
   -8.1555  -70.8408  -20.0984 C   0  0  0  0  0  0  0  0  0  0  0  0
   -9.2705  -70.6889  -20.9096 C   0  0  0  0  0  0  0  0  0  0  0  0
   -9.1417  -70.1661  -22.1340 F   0  0  0  0  0  0  0  0  0  0  0  0
  1  2  1  0
  2  3  1  0
  3  4  2  0
  3  5  2  0
  3  6  1  0
  6  7  1  0
  7  8  1  0
  8  9  2  0
  9 10  1  0
 10 11  2  0
 11 12  1  0
 12 13  2  0
 13 14  1  0
 13  8  1  0
M  END
>  <energy_score>  (17) 
-40.213377

>  <name>  (17) 
VUWLOCLKMVGYPC-UHFFFAOYSA-N

>  <distance_score>  (17) 
0.681042

>  <original ID>  (17) 
VUWLOCLKMVGYPC-UHFFFAOYSA-N

>  <HIPPO Compound ID>  (17) 
791

>  <exports>  (17) 
['/opt/xchem-fragalysis-2/maxwin/RdRp_FFF/quotes/JA_curated_and_manual_ordered.sdf']

>  <fragmenstein_mode>  (17) 
expansion

>  <scratch_subdir>  (17) 
/opt/xchem-fragalysis-2/maxwin/BulkDock/SCRATCH/220464/C50469-P150

>  <ref_pdb>  (17) 
d0615a

>  <ref_mols>  (17) 
d0174a,d0615a

>  <original SMILES>  (17) 
CCS(=O)(=O)NCc1ncccc1F

>  <alias>  (17) 
None

>  <tags>  (17) 
['DF curated INTERESTING', 'JA curated YES', 'Knitwork impure merge', 'Fragmenstein placed', 'Green Site/RNA tunnel merge']

>  <fragmenstein_outcome>  (17) 
too moved

>  <csv_name>  (17) 
RdRp_knitwork_green_site_rna_tunnel_impure_split4000_batch013.csv

>  <HIPPO Pose ID>  (17) 
50469

>  <SLURM_JOB_NAME>  (17) 
BulkDock.place:Flavi_NS5_RdRp:RdRp_knitwork_green_site_rna_tunnel_impure_split4000_batch013

>  <fragmenstein_runtime>  (17) 
11.186879

>  <fragmenstein_error>  (17) 
None

>  <SLURM_JOB_ID>  (17) 
220464

>  <inchikey>  (17) 
VUWLOCLKMVGYPC-UHFFFAOYSA-N

$$$$
KYKFBYOZGOXJTI-UHFFFAOYSA-N
     RDKit          3D

 15 15  0  0  0  0  0  0  0  0999 V2000
  -14.6892  -69.5242  -22.6594 C   0  0  0  0  0  0  0  0  0  0  0  0
  -15.2155  -69.5558  -21.2387 C   0  0  0  0  0  0  0  0  0  0  0  0
  -13.9357  -69.7377  -19.9993 S   0  0  0  0  0  0  0  0  0  0  0  0
  -12.9088  -68.7501  -20.2257 O   0  0  0  0  0  0  0  0  0  0  0  0
  -14.5726  -69.8850  -18.7067 O   0  0  0  0  0  0  0  0  0  0  0  0
  -13.3077  -71.2567  -20.3182 N   0  0  0  0  0  0  0  0  0  0  0  0
  -12.0675  -71.3002  -21.1115 C   0  0  0  0  0  0  0  0  0  0  0  0
  -10.8080  -71.2317  -20.2672 C   0  0  0  0  0  0  0  0  0  0  0  0
  -10.9231  -71.5327  -18.9415 N   0  0  0  0  0  0  0  0  0  0  0  0
   -9.7852  -71.5025  -18.2136 C   0  0  0  0  0  0  0  0  0  0  0  0
   -9.9994  -71.8059  -16.5381 Cl  0  0  0  0  0  0  0  0  0  0  0  0
   -8.5272  -71.2317  -18.7263 C   0  0  0  0  0  0  0  0  0  0  0  0
   -8.4254  -70.9438  -20.0830 C   0  0  0  0  0  0  0  0  0  0  0  0
   -9.5803  -70.9442  -20.8608 C   0  0  0  0  0  0  0  0  0  0  0  0
   -9.4704  -70.5890  -22.7006 Br  0  0  0  0  0  0  0  0  0  0  0  0
  1  2  1  0
  2  3  1  0
  3  4  2  0
  3  5  2  0
  3  6  1  0
  6  7  1  0
  7  8  1  0
  8  9  2  0
  9 10  1  0
 10 11  1  0
 10 12  2  0
 12 13  1  0
 13 14  2  0
 14 15  1  0
 14  8  1  0
M  END
>  <energy_score>  (18) 
-36.279095

>  <name>  (18) 
KYKFBYOZGOXJTI-UHFFFAOYSA-N

>  <distance_score>  (18) 
0.818691

>  <original ID>  (18) 
KYKFBYOZGOXJTI-UHFFFAOYSA-N

>  <HIPPO Compound ID>  (18) 
808

>  <exports>  (18) 
['/opt/xchem-fragalysis-2/maxwin/BulkDock/OUTPUTS/RdRp_knitwork_thumb_site_2_pure_split4000_batch000_211010.sdf', '/opt/xchem-fragalysis-2/maxwin/BulkDock/OUTPUTS/RdRp_knitwork_thumb_site_2_pure_fragalysis.sdf', '/opt/xchem-fragalysis-2/maxwin/RdRp_FFF/quotes/JA_curated_and_manual_ordered.sdf']

>  <fragmenstein_mode>  (18) 
['expansion']

>  <scratch_subdir>  (18) 
['/opt/xchem-fragalysis-2/maxwin/BulkDock/SCRATCH/211010/C808-P50']

>  <ref_pdb>  (18) 
d0615a

>  <ref_mols>  (18) 
d0174a,d0615a

>  <original SMILES>  (18) 
CCS(=O)(=O)NCc1nc(Cl)ccc1Br

>  <alias>  (18) 
None

>  <tags>  (18) 
['DF curated INTERESTING', 'Thumb Site 2 merge', 'Knitwork pure merge', 'Fragmenstein placed', 'JA curated YES', 'acceptable']

>  <fragmenstein_outcome>  (18) 
['acceptable']

>  <csv_name>  (18) 
RdRp_knitwork_thumb_site_2_pure_split4000_batch000.csv

>  <HIPPO Pose ID>  (18) 
50498

>  <SLURM_JOB_NAME>  (18) 
BulkDock.place:Flavi_NS5_RdRp:RdRp_knitwork_thumb_site_2_pure_split4000_batch000

>  <fragmenstein_runtime>  (18) 
[1.5386583805084229]

>  <fragmenstein_error>  (18) 
['']

>  <SLURM_JOB_ID>  (18) 
211010

>  <inchikey>  (18) 
KYKFBYOZGOXJTI-UHFFFAOYSA-N

$$$$
JSMASCHCFMRBQP-UHFFFAOYSA-N
     RDKit          3D

 14 14  0  0  0  0  0  0  0  0999 V2000
  -14.6711  -69.4032  -22.7069 C   0  0  0  0  0  0  0  0  0  0  0  0
  -15.1973  -69.5822  -21.2965 C   0  0  0  0  0  0  0  0  0  0  0  0
  -13.8982  -69.7958  -20.0839 S   0  0  0  0  0  0  0  0  0  0  0  0
  -13.0004  -68.6707  -20.1537 O   0  0  0  0  0  0  0  0  0  0  0  0
  -14.4918  -70.2045  -18.8257 O   0  0  0  0  0  0  0  0  0  0  0  0
  -13.1161  -71.1619  -20.6420 N   0  0  0  0  0  0  0  0  0  0  0  0
  -11.7596  -71.0153  -21.1743 C   0  0  0  0  0  0  0  0  0  0  0  0
  -10.6384  -71.0975  -20.1603 C   0  0  0  0  0  0  0  0  0  0  0  0
  -10.8599  -71.4484  -18.8224 C   0  0  0  0  0  0  0  0  0  0  0  0
   -9.7812  -71.5523  -17.9554 C   0  0  0  0  0  0  0  0  0  0  0  0
   -8.5024  -71.3364  -18.3125 N   0  0  0  0  0  0  0  0  0  0  0  0
   -8.2982  -70.9917  -19.6004 C   0  0  0  0  0  0  0  0  0  0  0  0
   -9.3115  -70.8545  -20.5523 C   0  0  0  0  0  0  0  0  0  0  0  0
   -8.9208  -70.5051  -21.9502 C   0  0  0  0  0  0  0  0  0  0  0  0
  1  2  1  0
  2  3  1  0
  3  4  2  0
  3  5  2  0
  3  6  1  0
  6  7  1  0
  7  8  1  0
  8  9  2  0
  9 10  1  0
 10 11  2  0
 11 12  1  0
 12 13  2  0
 13 14  1  0
 13  8  1  0
M  END
>  <energy_score>  (19) 
-33.257943

>  <name>  (19) 
JSMASCHCFMRBQP-UHFFFAOYSA-N

>  <distance_score>  (19) 
0.656089

>  <original ID>  (19) 
JSMASCHCFMRBQP-UHFFFAOYSA-N

>  <HIPPO Compound ID>  (19) 
850

>  <exports>  (19) 
['/opt/xchem-fragalysis-2/maxwin/BulkDock/OUTPUTS/RdRp_knitwork_thumb_site_2_pure_split4000_batch000_211010.sdf', '/opt/xchem-fragalysis-2/maxwin/BulkDock/OUTPUTS/RdRp_knitwork_thumb_site_2_pure_fragalysis.sdf', '/opt/xchem-fragalysis-2/maxwin/RdRp_FFF/quotes/JA_curated_and_manual_ordered.sdf']

>  <fragmenstein_mode>  (19) 
['expansion']

>  <scratch_subdir>  (19) 
['/opt/xchem-fragalysis-2/maxwin/BulkDock/SCRATCH/211010/C850-P50']

>  <ref_pdb>  (19) 
d0615a

>  <ref_mols>  (19) 
d0174a,d0615a

>  <original SMILES>  (19) 
CCS(=O)(=O)NCc1ccncc1C

>  <alias>  (19) 
None

>  <tags>  (19) 
['DF curated INTERESTING', 'Thumb Site 2 merge', 'Knitwork pure merge', 'Fragmenstein placed', 'JA curated YES', 'acceptable']

>  <fragmenstein_outcome>  (19) 
['acceptable']

>  <csv_name>  (19) 
RdRp_knitwork_thumb_site_2_pure_split4000_batch000.csv

>  <HIPPO Pose ID>  (19) 
50578

>  <SLURM_JOB_NAME>  (19) 
BulkDock.place:Flavi_NS5_RdRp:RdRp_knitwork_thumb_site_2_pure_split4000_batch000

>  <fragmenstein_runtime>  (19) 
[2.3045759201049805]

>  <fragmenstein_error>  (19) 
['']

>  <SLURM_JOB_ID>  (19) 
211010

>  <inchikey>  (19) 
JSMASCHCFMRBQP-UHFFFAOYSA-N

$$$$
YCSYUEQAYOMAGE-UHFFFAOYSA-N
     RDKit          3D

 14 14  0  0  0  0  0  0  0  0999 V2000
  -14.6252  -69.4831  -22.6922 C   0  0  0  0  0  0  0  0  0  0  0  0
  -15.1556  -69.6277  -21.2798 C   0  0  0  0  0  0  0  0  0  0  0  0
  -13.8654  -69.7920  -20.0495 S   0  0  0  0  0  0  0  0  0  0  0  0
  -12.9382  -68.6964  -20.1922 O   0  0  0  0  0  0  0  0  0  0  0  0
  -14.4901  -70.0867  -18.7745 O   0  0  0  0  0  0  0  0  0  0  0  0
  -13.1149  -71.2196  -20.5041 N   0  0  0  0  0  0  0  0  0  0  0  0
  -11.8103  -71.0918  -21.1935 C   0  0  0  0  0  0  0  0  0  0  0  0
  -10.6371  -71.1997  -20.2338 C   0  0  0  0  0  0  0  0  0  0  0  0
  -10.9139  -71.7126  -18.9991 N   0  0  0  0  0  0  0  0  0  0  0  0
   -9.8793  -71.8822  -18.1465 C   0  0  0  0  0  0  0  0  0  0  0  0
   -8.5666  -71.5802  -18.4548 C   0  0  0  0  0  0  0  0  0  0  0  0
   -8.2957  -71.0711  -19.7164 C   0  0  0  0  0  0  0  0  0  0  0  0
   -9.3385  -70.8727  -20.6300 C   0  0  0  0  0  0  0  0  0  0  0  0
   -9.0038  -70.4128  -22.0086 C   0  0  0  0  0  0  0  0  0  0  0  0
  1  2  1  0
  2  3  1  0
  3  4  2  0
  3  5  2  0
  3  6  1  0
  6  7  1  0
  7  8  1  0
  8  9  2  0
  9 10  1  0
 10 11  2  0
 11 12  1  0
 12 13  2  0
 13 14  1  0
 13  8  1  0
M  END
>  <energy_score>  (20) 
-42.845081

>  <name>  (20) 
YCSYUEQAYOMAGE-UHFFFAOYSA-N

>  <distance_score>  (20) 
0.677757

>  <original ID>  (20) 
YCSYUEQAYOMAGE-UHFFFAOYSA-N

>  <HIPPO Compound ID>  (20) 
852

>  <exports>  (20) 
['/opt/xchem-fragalysis-2/maxwin/RdRp_FFF/quotes/JA_curated_and_manual_ordered.sdf']

>  <fragmenstein_mode>  (20) 
expansion

>  <scratch_subdir>  (20) 
/opt/xchem-fragalysis-2/maxwin/BulkDock/SCRATCH/220467/C50581-P41

>  <ref_pdb>  (20) 
d0615a

>  <ref_mols>  (20) 
d0174a,d0615a

>  <original SMILES>  (20) 
CCS(=O)(=O)NCc1ncccc1C

>  <alias>  (20) 
None

>  <tags>  (20) 
['DF curated INTERESTING', 'JA curated YES', 'Knitwork impure merge', 'Fragmenstein placed', 'Green Site/RNA tunnel merge']

>  <fragmenstein_outcome>  (20) 
too moved

>  <csv_name>  (20) 
RdRp_knitwork_green_site_rna_tunnel_impure_split4000_batch016.csv

>  <HIPPO Pose ID>  (20) 
50581

>  <SLURM_JOB_NAME>  (20) 
BulkDock.place:Flavi_NS5_RdRp:RdRp_knitwork_green_site_rna_tunnel_impure_split4000_batch016

>  <fragmenstein_runtime>  (20) 
6.709692

>  <fragmenstein_error>  (20) 
None

>  <SLURM_JOB_ID>  (20) 
220467

>  <inchikey>  (20) 
YCSYUEQAYOMAGE-UHFFFAOYSA-N

$$$$
RWOAYQXMDLLTCN-UHFFFAOYSA-N
     RDKit          3D

 15 15  0  0  0  0  0  0  0  0999 V2000
  -14.6819  -69.4825  -22.6621 C   0  0  0  0  0  0  0  0  0  0  0  0
  -15.2002  -69.6167  -21.2441 C   0  0  0  0  0  0  0  0  0  0  0  0
  -13.9042  -69.7706  -20.0182 S   0  0  0  0  0  0  0  0  0  0  0  0
  -12.9686  -68.6860  -20.1854 O   0  0  0  0  0  0  0  0  0  0  0  0
  -14.5244  -70.0394  -18.7358 O   0  0  0  0  0  0  0  0  0  0  0  0
  -13.1642  -71.2100  -20.4449 N   0  0  0  0  0  0  0  0  0  0  0  0
  -11.9213  -71.1040  -21.2368 C   0  0  0  0  0  0  0  0  0  0  0  0
  -10.6718  -71.2174  -20.3829 C   0  0  0  0  0  0  0  0  0  0  0  0
  -10.8362  -71.7126  -19.1225 N   0  0  0  0  0  0  0  0  0  0  0  0
   -9.7223  -71.8932  -18.3745 C   0  0  0  0  0  0  0  0  0  0  0  0
   -8.4354  -71.6071  -18.8069 C   0  0  0  0  0  0  0  0  0  0  0  0
   -7.2326  -71.8907  -17.9688 C   0  0  0  0  0  0  0  0  0  0  0  0
   -8.2925  -71.1110  -20.0988 C   0  0  0  0  0  0  0  0  0  0  0  0
   -9.4162  -70.9151  -20.9088 C   0  0  0  0  0  0  0  0  0  0  0  0
   -9.2108  -70.4736  -22.3180 C   0  0  0  0  0  0  0  0  0  0  0  0
  1  2  1  0
  2  3  1  0
  3  4  2  0
  3  5  2  0
  3  6  1  0
  6  7  1  0
  7  8  1  0
  8  9  2  0
  9 10  1  0
 10 11  2  0
 11 12  1  0
 11 13  1  0
 13 14  2  0
 14 15  1  0
 14  8  1  0
M  END
>  <energy_score>  (21) 
-34.207058

>  <name>  (21) 
RWOAYQXMDLLTCN-UHFFFAOYSA-N

>  <distance_score>  (21) 
0.914108

>  <original ID>  (21) 
RWOAYQXMDLLTCN-UHFFFAOYSA-N

>  <HIPPO Compound ID>  (21) 
856

>  <exports>  (21) 
['/opt/xchem-fragalysis-2/maxwin/RdRp_FFF/quotes/JA_curated_and_manual_ordered.sdf']

>  <fragmenstein_mode>  (21) 
expansion

>  <scratch_subdir>  (21) 
/opt/xchem-fragalysis-2/maxwin/BulkDock/SCRATCH/220464/C50585-P150

>  <ref_pdb>  (21) 
d0615a

>  <ref_mols>  (21) 
d0174a,d0615a

>  <original SMILES>  (21) 
CCS(=O)(=O)NCc1ncc(C)cc1C

>  <alias>  (21) 
None

>  <tags>  (21) 
['DF curated INTERESTING', 'JA curated YES', 'Knitwork impure merge', 'Fragmenstein placed', 'Green Site/RNA tunnel merge']

>  <fragmenstein_outcome>  (21) 
too moved

>  <csv_name>  (21) 
RdRp_knitwork_green_site_rna_tunnel_impure_split4000_batch013.csv

>  <HIPPO Pose ID>  (21) 
50585

>  <SLURM_JOB_NAME>  (21) 
BulkDock.place:Flavi_NS5_RdRp:RdRp_knitwork_green_site_rna_tunnel_impure_split4000_batch013

>  <fragmenstein_runtime>  (21) 
15.01073

>  <fragmenstein_error>  (21) 
None

>  <SLURM_JOB_ID>  (21) 
220464

>  <inchikey>  (21) 
RWOAYQXMDLLTCN-UHFFFAOYSA-N

$$$$
CZXIYJPCHZSMDX-UHFFFAOYSA-N
     RDKit          3D

 15 15  0  0  0  0  0  0  0  0999 V2000
  -14.6586  -69.4235  -22.6841 C   0  0  0  0  0  0  0  0  0  0  0  0
  -15.2108  -69.6203  -21.2866 C   0  0  0  0  0  0  0  0  0  0  0  0
  -13.9419  -69.7338  -20.0284 S   0  0  0  0  0  0  0  0  0  0  0  0
  -13.0915  -68.5734  -20.0981 O   0  0  0  0  0  0  0  0  0  0  0  0
  -14.5553  -70.1368  -18.7793 O   0  0  0  0  0  0  0  0  0  0  0  0
  -13.0612  -71.0609  -20.4987 N   0  0  0  0  0  0  0  0  0  0  0  0
  -11.8087  -70.8669  -21.2235 C   0  0  0  0  0  0  0  0  0  0  0  0
  -10.5546  -71.0919  -20.4184 C   0  0  0  0  0  0  0  0  0  0  0  0
  -10.5265  -71.0168  -19.0273 C   0  0  0  0  0  0  0  0  0  0  0  0
   -9.4308  -71.2433  -18.2608 N   0  0  0  0  0  0  0  0  0  0  0  0
   -8.2737  -71.5093  -18.9049 C   0  0  0  0  0  0  0  0  0  0  0  0
   -7.0540  -71.7601  -18.0743 C   0  0  0  0  0  0  0  0  0  0  0  0
   -8.1798  -71.5368  -20.2888 C   0  0  0  0  0  0  0  0  0  0  0  0
   -9.3319  -71.3465  -21.0589 C   0  0  0  0  0  0  0  0  0  0  0  0
   -9.2247  -71.3924  -22.5521 C   0  0  0  0  0  0  0  0  0  0  0  0
  1  2  1  0
  2  3  1  0
  3  4  2  0
  3  5  2  0
  3  6  1  0
  6  7  1  0
  7  8  1  0
  8  9  2  0
  9 10  1  0
 10 11  2  0
 11 12  1  0
 11 13  1  0
 13 14  2  0
 14 15  1  0
 14  8  1  0
M  END
>  <energy_score>  (22) 
-28.004284

>  <name>  (22) 
CZXIYJPCHZSMDX-UHFFFAOYSA-N

>  <distance_score>  (22) 
0.773801

>  <original ID>  (22) 
CZXIYJPCHZSMDX-UHFFFAOYSA-N

>  <HIPPO Compound ID>  (22) 
885

>  <exports>  (22) 
['/opt/xchem-fragalysis-2/maxwin/BulkDock/OUTPUTS/RdRp_knitwork_thumb_site_2_pure_split4000_batch000_211010.sdf', '/opt/xchem-fragalysis-2/maxwin/BulkDock/OUTPUTS/RdRp_knitwork_thumb_site_2_pure_fragalysis.sdf', '/opt/xchem-fragalysis-2/maxwin/RdRp_FFF/quotes/JA_curated_and_manual_ordered.sdf']

>  <fragmenstein_mode>  (22) 
['expansion']

>  <scratch_subdir>  (22) 
['/opt/xchem-fragalysis-2/maxwin/BulkDock/SCRATCH/211010/C885-P50']

>  <ref_pdb>  (22) 
d0615a

>  <ref_mols>  (22) 
d0174a,d0615a

>  <original SMILES>  (22) 
CCS(=O)(=O)NCc1cnc(C)cc1C

>  <alias>  (22) 
None

>  <tags>  (22) 
['DF curated INTERESTING', 'Thumb Site 2 merge', 'Knitwork pure merge', 'Fragmenstein placed', 'JA curated YES', 'acceptable']

>  <fragmenstein_outcome>  (22) 
['acceptable']

>  <csv_name>  (22) 
RdRp_knitwork_thumb_site_2_pure_split4000_batch000.csv

>  <HIPPO Pose ID>  (22) 
50611

>  <SLURM_JOB_NAME>  (22) 
BulkDock.place:Flavi_NS5_RdRp:RdRp_knitwork_thumb_site_2_pure_split4000_batch000

>  <fragmenstein_runtime>  (22) 
[1.7871043682098389]

>  <fragmenstein_error>  (22) 
['']

>  <SLURM_JOB_ID>  (22) 
211010

>  <inchikey>  (22) 
CZXIYJPCHZSMDX-UHFFFAOYSA-N

$$$$
QXEWTLBETOJJBD-UHFFFAOYSA-N
     RDKit          3D

 14 14  0  0  0  0  0  0  0  0999 V2000
  -14.6174  -69.4762  -22.6797 C   0  0  0  0  0  0  0  0  0  0  0  0
  -15.1490  -69.5942  -21.2655 C   0  0  0  0  0  0  0  0  0  0  0  0
  -13.8632  -69.7973  -20.0354 S   0  0  0  0  0  0  0  0  0  0  0  0
  -12.8990  -68.7337  -20.1757 O   0  0  0  0  0  0  0  0  0  0  0  0
  -14.4928  -70.0750  -18.7593 O   0  0  0  0  0  0  0  0  0  0  0  0
  -13.1529  -71.2455  -20.4846 N   0  0  0  0  0  0  0  0  0  0  0  0
  -11.8553  -71.1567  -21.1910 C   0  0  0  0  0  0  0  0  0  0  0  0
  -10.6709  -71.2418  -20.2461 C   0  0  0  0  0  0  0  0  0  0  0  0
  -10.8869  -71.8315  -19.0313 N   0  0  0  0  0  0  0  0  0  0  0  0
   -9.8153  -71.9788  -18.2179 C   0  0  0  0  0  0  0  0  0  0  0  0
   -8.5303  -71.5785  -18.5482 C   0  0  0  0  0  0  0  0  0  0  0  0
   -8.3252  -70.9872  -19.7892 C   0  0  0  0  0  0  0  0  0  0  0  0
   -9.4067  -70.8217  -20.6500 C   0  0  0  0  0  0  0  0  0  0  0  0
   -9.1515  -70.1361  -22.1915 Cl  0  0  0  0  0  0  0  0  0  0  0  0
  1  2  1  0
  2  3  1  0
  3  4  2  0
  3  5  2  0
  3  6  1  0
  6  7  1  0
  7  8  1  0
  8  9  2  0
  9 10  1  0
 10 11  2  0
 11 12  1  0
 12 13  2  0
 13 14  1  0
 13  8  1  0
M  END
>  <energy_score>  (23) 
-41.158325

>  <name>  (23) 
QXEWTLBETOJJBD-UHFFFAOYSA-N

>  <distance_score>  (23) 
0.801976

>  <original ID>  (23) 
QXEWTLBETOJJBD-UHFFFAOYSA-N

>  <HIPPO Compound ID>  (23) 
886

>  <exports>  (23) 
['/opt/xchem-fragalysis-2/maxwin/RdRp_FFF/quotes/JA_curated_and_manual_ordered.sdf']

>  <fragmenstein_mode>  (23) 
expansion

>  <scratch_subdir>  (23) 
/opt/xchem-fragalysis-2/maxwin/BulkDock/SCRATCH/220464/C50612-P206

>  <ref_pdb>  (23) 
d0615a

>  <ref_mols>  (23) 
d0174a,d0615a

>  <original SMILES>  (23) 
CCS(=O)(=O)NCc1ncccc1Cl

>  <alias>  (23) 
None

>  <tags>  (23) 
['DF curated INTERESTING', 'JA curated YES', 'Knitwork impure merge', 'Fragmenstein placed', 'Green Site/RNA tunnel merge']

>  <fragmenstein_outcome>  (23) 
too moved

>  <csv_name>  (23) 
RdRp_knitwork_green_site_rna_tunnel_impure_split4000_batch013.csv

>  <HIPPO Pose ID>  (23) 
50612

>  <SLURM_JOB_NAME>  (23) 
BulkDock.place:Flavi_NS5_RdRp:RdRp_knitwork_green_site_rna_tunnel_impure_split4000_batch013

>  <fragmenstein_runtime>  (23) 
15.616388

>  <fragmenstein_error>  (23) 
None

>  <SLURM_JOB_ID>  (23) 
220464

>  <inchikey>  (23) 
QXEWTLBETOJJBD-UHFFFAOYSA-N

$$$$
XDGUIPBTSIDPMH-UHFFFAOYSA-N
     RDKit          3D

 14 14  0  0  0  0  0  0  0  0999 V2000
  -14.6342  -69.4153  -22.6921 C   0  0  0  0  0  0  0  0  0  0  0  0
  -15.1664  -69.5394  -21.2783 C   0  0  0  0  0  0  0  0  0  0  0  0
  -13.8803  -69.8049  -20.0609 S   0  0  0  0  0  0  0  0  0  0  0  0
  -12.9182  -68.7352  -20.1463 O   0  0  0  0  0  0  0  0  0  0  0  0
  -14.4963  -70.1618  -18.7978 O   0  0  0  0  0  0  0  0  0  0  0  0
  -13.1726  -71.2215  -20.5877 N   0  0  0  0  0  0  0  0  0  0  0  0
  -11.8288  -71.1592  -21.1666 C   0  0  0  0  0  0  0  0  0  0  0  0
  -10.6891  -71.1971  -20.1737 C   0  0  0  0  0  0  0  0  0  0  0  0
  -10.8348  -71.6924  -18.8710 C   0  0  0  0  0  0  0  0  0  0  0  0
   -9.7244  -71.7528  -18.0366 C   0  0  0  0  0  0  0  0  0  0  0  0
   -8.4848  -71.3662  -18.3990 N   0  0  0  0  0  0  0  0  0  0  0  0
   -8.3543  -70.8929  -19.6600 C   0  0  0  0  0  0  0  0  0  0  0  0
   -9.4070  -70.7945  -20.5622 C   0  0  0  0  0  0  0  0  0  0  0  0
   -9.1095  -70.1975  -22.1353 Cl  0  0  0  0  0  0  0  0  0  0  0  0
  1  2  1  0
  2  3  1  0
  3  4  2  0
  3  5  2  0
  3  6  1  0
  6  7  1  0
  7  8  1  0
  8  9  2  0
  9 10  1  0
 10 11  2  0
 11 12  1  0
 12 13  2  0
 13 14  1  0
 13  8  1  0
M  END
>  <energy_score>  (24) 
-30.408529

>  <name>  (24) 
XDGUIPBTSIDPMH-UHFFFAOYSA-N

>  <distance_score>  (24) 
0.706599

>  <original ID>  (24) 
XDGUIPBTSIDPMH-UHFFFAOYSA-N

>  <HIPPO Compound ID>  (24) 
890

>  <exports>  (24) 
['/opt/xchem-fragalysis-2/maxwin/BulkDock/OUTPUTS/RdRp_knitwork_thumb_site_2_pure_split4000_batch000_211010.sdf', '/opt/xchem-fragalysis-2/maxwin/BulkDock/OUTPUTS/RdRp_knitwork_thumb_site_2_pure_fragalysis.sdf', '/opt/xchem-fragalysis-2/maxwin/RdRp_FFF/quotes/JA_curated_and_manual_ordered.sdf']

>  <fragmenstein_mode>  (24) 
['expansion']

>  <scratch_subdir>  (24) 
['/opt/xchem-fragalysis-2/maxwin/BulkDock/SCRATCH/211010/C890-P50']

>  <ref_pdb>  (24) 
d0615a

>  <ref_mols>  (24) 
d0174a,d0615a

>  <original SMILES>  (24) 
CCS(=O)(=O)NCc1ccncc1Cl

>  <alias>  (24) 
None

>  <tags>  (24) 
['DF curated INTERESTING', 'Thumb Site 2 merge', 'Knitwork pure merge', 'Fragmenstein placed', 'JA curated YES', 'acceptable']

>  <fragmenstein_outcome>  (24) 
['acceptable']

>  <csv_name>  (24) 
RdRp_knitwork_thumb_site_2_pure_split4000_batch000.csv

>  <HIPPO Pose ID>  (24) 
50614

>  <SLURM_JOB_NAME>  (24) 
BulkDock.place:Flavi_NS5_RdRp:RdRp_knitwork_thumb_site_2_pure_split4000_batch000

>  <fragmenstein_runtime>  (24) 
[1.2955694198608398]

>  <fragmenstein_error>  (24) 
['']

>  <SLURM_JOB_ID>  (24) 
211010

>  <inchikey>  (24) 
XDGUIPBTSIDPMH-UHFFFAOYSA-N

$$$$
BCMFRBFZBGDNRH-UHFFFAOYSA-N
     RDKit          3D

 14 14  0  0  0  0  0  0  0  0999 V2000
  -14.6006  -69.4550  -22.6938 C   0  0  0  0  0  0  0  0  0  0  0  0
  -15.1677  -69.6591  -21.3035 C   0  0  0  0  0  0  0  0  0  0  0  0
  -13.9111  -69.7523  -20.0312 S   0  0  0  0  0  0  0  0  0  0  0  0
  -13.0679  -68.5868  -20.1030 O   0  0  0  0  0  0  0  0  0  0  0  0
  -14.5351  -70.1483  -18.7849 O   0  0  0  0  0  0  0  0  0  0  0  0
  -13.0163  -71.0804  -20.4793 N   0  0  0  0  0  0  0  0  0  0  0  0
  -11.7288  -70.8833  -21.1426 C   0  0  0  0  0  0  0  0  0  0  0  0
  -10.5112  -71.0653  -20.2692 C   0  0  0  0  0  0  0  0  0  0  0  0
  -10.5526  -70.9501  -18.8799 C   0  0  0  0  0  0  0  0  0  0  0  0
   -9.4885  -71.1188  -18.0541 N   0  0  0  0  0  0  0  0  0  0  0  0
   -8.3022  -71.3625  -18.6428 C   0  0  0  0  0  0  0  0  0  0  0  0
   -8.1322  -71.4497  -20.0115 C   0  0  0  0  0  0  0  0  0  0  0  0
   -9.2511  -71.3131  -20.8413 C   0  0  0  0  0  0  0  0  0  0  0  0
   -9.0755  -71.4068  -22.3260 C   0  0  0  0  0  0  0  0  0  0  0  0
  1  2  1  0
  2  3  1  0
  3  4  2  0
  3  5  2  0
  3  6  1  0
  6  7  1  0
  7  8  1  0
  8  9  2  0
  9 10  1  0
 10 11  2  0
 11 12  1  0
 12 13  2  0
 13 14  1  0
 13  8  1  0
M  END
>  <energy_score>  (25) 
-26.981517

>  <name>  (25) 
BCMFRBFZBGDNRH-UHFFFAOYSA-N

>  <distance_score>  (25) 
0.896937

>  <original ID>  (25) 
BCMFRBFZBGDNRH-UHFFFAOYSA-N

>  <HIPPO Compound ID>  (25) 
915

>  <exports>  (25) 
['/opt/xchem-fragalysis-2/maxwin/BulkDock/OUTPUTS/RdRp_knitwork_thumb_site_2_pure_split4000_batch000_211010.sdf', '/opt/xchem-fragalysis-2/maxwin/BulkDock/OUTPUTS/RdRp_knitwork_thumb_site_2_pure_fragalysis.sdf', '/opt/xchem-fragalysis-2/maxwin/RdRp_FFF/quotes/JA_curated_and_manual_ordered.sdf']

>  <fragmenstein_mode>  (25) 
['expansion']

>  <scratch_subdir>  (25) 
['/opt/xchem-fragalysis-2/maxwin/BulkDock/SCRATCH/211010/C915-P50']

>  <ref_pdb>  (25) 
d0615a

>  <ref_mols>  (25) 
d0174a,d0615a

>  <original SMILES>  (25) 
CCS(=O)(=O)NCc1cnccc1C

>  <alias>  (25) 
None

>  <tags>  (25) 
['DF curated INTERESTING', 'Thumb Site 2 merge', 'Knitwork pure merge', 'Fragmenstein placed', 'JA curated YES', 'acceptable']

>  <fragmenstein_outcome>  (25) 
['acceptable']

>  <csv_name>  (25) 
RdRp_knitwork_thumb_site_2_pure_split4000_batch000.csv

>  <HIPPO Pose ID>  (25) 
50640

>  <SLURM_JOB_NAME>  (25) 
BulkDock.place:Flavi_NS5_RdRp:RdRp_knitwork_thumb_site_2_pure_split4000_batch000

>  <fragmenstein_runtime>  (25) 
[1.3582980632781982]

>  <fragmenstein_error>  (25) 
['']

>  <SLURM_JOB_ID>  (25) 
211010

>  <inchikey>  (25) 
BCMFRBFZBGDNRH-UHFFFAOYSA-N

$$$$
KUNYWHXFLWUFPB-UHFFFAOYSA-N
     RDKit          3D

 13 13  0  0  0  0  0  0  0  0999 V2000
  -15.4062  -70.2297  -21.2706 C   0  0  0  0  0  0  0  0  0  0  0  0
  -14.1364  -71.0236  -21.0188 C   0  0  0  0  0  0  0  0  0  0  0  0
  -13.1056  -70.2089  -19.7956 S   0  0  0  0  0  0  0  0  0  0  0  0
  -12.9757  -68.8043  -20.1119 O   0  0  0  0  0  0  0  0  0  0  0  0
  -13.6599  -70.5968  -18.5140 O   0  0  0  0  0  0  0  0  0  0  0  0
  -11.5863  -70.9819  -20.0273 N   0  0  0  0  0  0  0  0  0  0  0  0
  -10.5769  -70.8829  -18.9354 C   0  0  0  0  0  0  0  0  0  0  0  0
  -11.0151  -70.9148  -21.3538 C   0  0  0  0  0  0  0  0  0  0  0  0
  -10.0489  -71.8379  -21.7371 C   0  0  0  0  0  0  0  0  0  0  0  0
   -9.6021  -71.8545  -23.0545 C   0  0  0  0  0  0  0  0  0  0  0  0
  -10.1177  -70.9301  -23.9452 C   0  0  0  0  0  0  0  0  0  0  0  0
  -11.0213  -70.0024  -23.6028 N   0  0  0  0  0  0  0  0  0  0  0  0
  -11.4312  -70.0121  -22.3227 C   0  0  0  0  0  0  0  0  0  0  0  0
  1  2  1  0
  2  3  1  0
  3  4  2  0
  3  5  2  0
  3  6  1  0
  6  7  1  0
  6  8  1  0
  8  9  2  0
  9 10  1  0
 10 11  2  0
 11 12  1  0
 12 13  2  0
 13  8  1  0
M  END
>  <energy_score>  (26) 
-34.33625

>  <name>  (26) 
KUNYWHXFLWUFPB-UHFFFAOYSA-N

>  <distance_score>  (26) 
0.638958

>  <original ID>  (26) 
KUNYWHXFLWUFPB-UHFFFAOYSA-N

>  <HIPPO Compound ID>  (26) 
1345

>  <exports>  (26) 
['/opt/xchem-fragalysis-2/maxwin/BulkDock/OUTPUTS/RdRp_knitwork_thumb_site_2_impure_split4000_batch000_211013.sdf', '/opt/xchem-fragalysis-2/maxwin/BulkDock/OUTPUTS/RdRp_knitwork_thumb_site_2_impure_fragalysis.sdf', '/opt/xchem-fragalysis-2/maxwin/RdRp_FFF/quotes/JA_curated_and_manual_ordered.sdf']

>  <fragmenstein_mode>  (26) 
['expansion']

>  <scratch_subdir>  (26) 
['/opt/xchem-fragalysis-2/maxwin/BulkDock/SCRATCH/211013/C1345-P17']

>  <ref_pdb>  (26) 
d0174a

>  <ref_mols>  (26) 
d0174a,d0279a,d0615a

>  <original SMILES>  (26) 
CCS(=O)(=O)N(C)c1cccnc1

>  <alias>  (26) 
None

>  <tags>  (26) 
['DF curated INTERESTING', 'Thumb Site 2 merge', 'Knitwork impure merge', 'Fragmenstein placed', 'JA curated YES', 'acceptable']

>  <fragmenstein_outcome>  (26) 
['acceptable']

>  <csv_name>  (26) 
RdRp_knitwork_thumb_site_2_impure_split4000_batch000.csv

>  <HIPPO Pose ID>  (26) 
51151

>  <SLURM_JOB_NAME>  (26) 
BulkDock.place:Flavi_NS5_RdRp:RdRp_knitwork_thumb_site_2_impure_split4000_batch000

>  <fragmenstein_runtime>  (26) 
[1.338061809539795]

>  <fragmenstein_error>  (26) 
['']

>  <SLURM_JOB_ID>  (26) 
211013

>  <inchikey>  (26) 
KUNYWHXFLWUFPB-UHFFFAOYSA-N

$$$$
KUNYWHXFLWUFPB-UHFFFAOYSA-N
     RDKit          3D

 13 13  0  0  0  0  0  0  0  0999 V2000
  -14.5759  -69.6688  -22.7810 C   0  0  0  0  0  0  0  0  0  0  0  0
  -15.0771  -69.8523  -21.3664 C   0  0  0  0  0  0  0  0  0  0  0  0
  -13.7993  -69.8184  -20.1160 S   0  0  0  0  0  0  0  0  0  0  0  0
  -13.0305  -68.6070  -20.2749 O   0  0  0  0  0  0  0  0  0  0  0  0
  -14.4508  -70.1186  -18.8525 O   0  0  0  0  0  0  0  0  0  0  0  0
  -12.8133  -71.1384  -20.5593 N   0  0  0  0  0  0  0  0  0  0  0  0
  -11.6308  -70.8114  -21.3961 C   0  0  0  0  0  0  0  0  0  0  0  0
  -12.5399  -72.0838  -19.5067 C   0  0  0  0  0  0  0  0  0  0  0  0
  -12.8509  -73.4241  -19.7137 C   0  0  0  0  0  0  0  0  0  0  0  0
  -12.5395  -74.3574  -18.7273 C   0  0  0  0  0  0  0  0  0  0  0  0
  -11.9104  -73.9153  -17.5728 C   0  0  0  0  0  0  0  0  0  0  0  0
  -11.5756  -72.6250  -17.3453 N   0  0  0  0  0  0  0  0  0  0  0  0
  -11.8821  -71.7400  -18.3253 C   0  0  0  0  0  0  0  0  0  0  0  0
  1  2  1  0
  2  3  1  0
  3  4  2  0
  3  5  2  0
  3  6  1  0
  6  7  1  0
  6  8  1  0
  8  9  2  0
  9 10  1  0
 10 11  2  0
 11 12  1  0
 12 13  2  0
 13  8  1  0
M  END
>  <energy_score>  (27) 
-34.412373

>  <name>  (27) 
KUNYWHXFLWUFPB-UHFFFAOYSA-N

>  <distance_score>  (27) 
0.669055

>  <original ID>  (27) 
KUNYWHXFLWUFPB-UHFFFAOYSA-N

>  <HIPPO Compound ID>  (27) 
1345

>  <exports>  (27) 
nan

>  <fragmenstein_mode>  (27) 
expansion

>  <scratch_subdir>  (27) 
/opt/xchem-fragalysis-2/maxwin/BulkDock/SCRATCH/220464/C51152-P206

>  <ref_pdb>  (27) 
d0279a

>  <ref_mols>  (27) 
d0174a,d0279a

>  <original SMILES>  (27) 
CCS(=O)(=O)N(C)c1cccnc1

>  <alias>  (27) 
None

>  <tags>  (27) 
['DF curated INTERESTING', 'Knitwork impure merge', 'Fragmenstein placed', 'Green Site/RNA tunnel merge']

>  <fragmenstein_outcome>  (27) 
too moved

>  <csv_name>  (27) 
RdRp_knitwork_green_site_rna_tunnel_impure_split4000_batch013.csv

>  <HIPPO Pose ID>  (27) 
51152

>  <SLURM_JOB_NAME>  (27) 
BulkDock.place:Flavi_NS5_RdRp:RdRp_knitwork_green_site_rna_tunnel_impure_split4000_batch013

>  <fragmenstein_runtime>  (27) 
3.279843

>  <fragmenstein_error>  (27) 
None

>  <SLURM_JOB_ID>  (27) 
220464

>  <inchikey>  (27) 
KUNYWHXFLWUFPB-UHFFFAOYSA-N

$$$$
CRCWHWXTZMWLKL-SECBINFHSA-N
     RDKit          3D

 15 15  0  0  0  0  0  0  0  0999 V2000
   -9.6307  -71.3586  -19.2187 C   0  0  0  0  0  0  0  0  0  0  0  0
  -10.3498  -70.7325  -20.1621 C   0  0  0  0  0  0  0  0  0  0  0  0
  -11.4727  -71.3200  -20.9917 C   0  0  2  0  0  0  0  0  0  0  0  0
  -11.3106  -72.8454  -21.2035 C   0  0  0  0  0  0  0  0  0  0  0  0
  -11.6031  -70.6406  -22.3757 C   0  0  0  0  0  0  0  0  0  0  0  0
  -10.3678  -70.7738  -23.2639 C   0  0  0  0  0  0  0  0  0  0  0  0
  -12.6591  -71.1839  -20.1269 N   0  0  0  0  0  0  0  0  0  0  0  0
  -13.7213  -69.9024  -20.1419 S   0  0  0  0  0  0  0  0  0  0  0  0
  -14.5453  -70.0636  -18.9602 O   0  0  0  0  0  0  0  0  0  0  0  0
  -13.0207  -68.6707  -20.4092 O   0  0  0  0  0  0  0  0  0  0  0  0
  -14.8049  -70.1379  -21.4877 C   0  0  0  0  0  0  0  0  0  0  0  0
  -15.3179  -69.1183  -22.2629 C   0  0  0  0  0  0  0  0  0  0  0  0
  -16.2858  -69.7842  -23.5167 S   0  0  0  0  0  0  0  0  0  0  0  0
  -15.9035  -71.3546  -22.9639 C   0  0  0  0  0  0  0  0  0  0  0  0
  -15.1418  -71.4302  -21.9002 N   0  0  0  0  0  0  0  0  0  0  0  0
  1  2  2  0
  2  3  1  0
  3  4  1  6
  3  5  1  0
  5  6  1  0
  3  7  1  0
  7  8  1  0
  8  9  2  0
  8 10  2  0
  8 11  1  0
 11 12  2  0
 12 13  1  0
 13 14  1  0
 14 15  2  0
 15 11  1  0
M  END
>  <energy_score>  (28) 
-118.490302

>  <name>  (28) 
CRCWHWXTZMWLKL-SECBINFHSA-N

>  <distance_score>  (28) 
0.844501

>  <original ID>  (28) 
CRCWHWXTZMWLKL-SECBINFHSA-N

>  <HIPPO Compound ID>  (28) 
5850

>  <exports>  (28) 
['/opt/xchem-fragalysis-2/maxwin/BulkDock/OUTPUTS/RdRp_knitwork_thumb_site_2_impure_split4000_batch000_211013.sdf', '/opt/xchem-fragalysis-2/maxwin/BulkDock/OUTPUTS/RdRp_knitwork_thumb_site_2_impure_fragalysis.sdf']

>  <fragmenstein_mode>  (28) 
['expansion']

>  <scratch_subdir>  (28) 
['/opt/xchem-fragalysis-2/maxwin/BulkDock/SCRATCH/211013/C5850-P50']

>  <ref_pdb>  (28) 
d0615a

>  <ref_mols>  (28) 
d0174a,d0615a

>  <original SMILES>  (28) 
C=C[C@](C)(CC)NS(=O)(=O)c1cscn1

>  <alias>  (28) 
None

>  <tags>  (28) 
['DF curated INTERESTING', 'Thumb Site 2 merge', 'Knitwork impure merge', 'Fragmenstein placed', 'acceptable']

>  <fragmenstein_outcome>  (28) 
['acceptable']

>  <csv_name>  (28) 
RdRp_knitwork_thumb_site_2_impure_split4000_batch000.csv

>  <HIPPO Pose ID>  (28) 
51647

>  <SLURM_JOB_NAME>  (28) 
BulkDock.place:Flavi_NS5_RdRp:RdRp_knitwork_thumb_site_2_impure_split4000_batch000

>  <fragmenstein_runtime>  (28) 
[2.268122673034668]

>  <fragmenstein_error>  (28) 
['']

>  <SLURM_JOB_ID>  (28) 
211013

>  <inchikey>  (28) 
CRCWHWXTZMWLKL-SECBINFHSA-N

$$$$
MAVCNBRDNQKOQG-SFYZADRCSA-N
     RDKit          3D

 18 18  0  0  0  0  0  0  0  0999 V2000
  -11.5761  -70.3421  -22.6155 C   0  0  0  0  0  0  0  0  0  0  0  0
  -11.6951  -71.2256  -21.3894 C   0  0  2  0  0  0  0  0  0  0  0  0
  -13.0402  -71.1904  -20.7529 N   0  0  0  0  0  0  0  0  0  0  0  0
  -13.7324  -69.7429  -20.2884 S   0  0  0  0  0  0  0  0  0  0  0  0
  -12.6844  -68.7782  -20.0700 O   0  0  0  0  0  0  0  0  0  0  0  0
  -14.6388  -70.0986  -19.2143 O   0  0  0  0  0  0  0  0  0  0  0  0
  -14.6929  -69.2240  -21.7161 C   0  0  0  0  0  0  0  0  0  0  0  0
  -15.0924  -70.3408  -22.6883 C   0  0  1  0  0  0  0  0  0  0  0  0
  -16.2923  -71.1113  -22.1712 C   0  0  0  0  0  0  0  0  0  0  0  0
  -15.3687  -69.7557  -24.0601 C   0  0  0  0  0  0  0  0  0  0  0  0
  -15.6171  -70.7579  -25.1596 C   0  0  0  0  0  0  0  0  0  0  0  0
  -14.2818  -69.0301  -24.4256 F   0  0  0  0  0  0  0  0  0  0  0  0
  -16.4333  -68.9193  -23.9914 F   0  0  0  0  0  0  0  0  0  0  0  0
  -10.6271  -71.1104  -20.3241 C   0  0  0  0  0  0  0  0  0  0  0  0
  -10.7879  -71.5931  -19.1018 N   0  0  0  0  0  0  0  0  0  0  0  0
   -9.6015  -71.5010  -18.4026 C   0  0  0  0  0  0  0  0  0  0  0  0
   -8.5425  -70.9654  -19.0992 C   0  0  0  0  0  0  0  0  0  0  0  0
   -9.0481  -70.5242  -20.6705 S   0  0  0  0  0  0  0  0  0  0  0  0
  2  1  1  6
  2  3  1  0
  3  4  1  0
  4  5  2  0
  4  6  2  0
  4  7  1  0
  7  8  1  0
  8  9  1  1
  8 10  1  0
 10 11  1  0
 10 12  1  0
 10 13  1  0
  2 14  1  0
 14 15  2  0
 15 16  1  0
 16 17  2  0
 17 18  1  0
 18 14  1  0
M  END
>  <energy_score>  (29) 
-90.708089

>  <name>  (29) 
MAVCNBRDNQKOQG-SFYZADRCSA-N

>  <distance_score>  (29) 
0.592396

>  <original ID>  (29) 
MAVCNBRDNQKOQG-SFYZADRCSA-N

>  <HIPPO Compound ID>  (29) 
5927

>  <exports>  (29) 
['/opt/xchem-fragalysis-2/maxwin/BulkDock/OUTPUTS/RdRp_knitwork_thumb_site_2_impure_split4000_batch000_211013.sdf', '/opt/xchem-fragalysis-2/maxwin/BulkDock/OUTPUTS/RdRp_knitwork_thumb_site_2_impure_fragalysis.sdf']

>  <fragmenstein_mode>  (29) 
['expansion']

>  <scratch_subdir>  (29) 
['/opt/xchem-fragalysis-2/maxwin/BulkDock/SCRATCH/211013/C5927-P17']

>  <ref_pdb>  (29) 
d0174a

>  <ref_mols>  (29) 
d0174a,d0615a

>  <original SMILES>  (29) 
C[C@H](NS(=O)(=O)C[C@@H](C)C(C)(F)F)c1nccs1

>  <alias>  (29) 
None

>  <tags>  (29) 
['DF curated INTERESTING', 'Thumb Site 2 merge', 'Knitwork impure merge', 'Fragmenstein placed', 'acceptable']

>  <fragmenstein_outcome>  (29) 
['acceptable']

>  <csv_name>  (29) 
RdRp_knitwork_thumb_site_2_impure_split4000_batch000.csv

>  <HIPPO Pose ID>  (29) 
51648

>  <SLURM_JOB_NAME>  (29) 
BulkDock.place:Flavi_NS5_RdRp:RdRp_knitwork_thumb_site_2_impure_split4000_batch000

>  <fragmenstein_runtime>  (29) 
[2.5174944400787354]

>  <fragmenstein_error>  (29) 
['']

>  <SLURM_JOB_ID>  (29) 
211013

>  <inchikey>  (29) 
MAVCNBRDNQKOQG-SFYZADRCSA-N

$$$$
ZXADTZPZTLKOGO-RXMQYKEDSA-N
     RDKit          3D

 13 13  0  0  0  0  0  0  0  0999 V2000
  -11.5355  -71.3381  -22.6605 C   0  0  0  0  0  0  0  0  0  0  0  0
  -11.7291  -70.5155  -21.3886 C   0  0  1  0  0  0  0  0  0  0  0  0
  -13.0118  -70.9264  -20.7892 N   0  0  0  0  0  0  0  0  0  0  0  0
  -13.9458  -69.7460  -20.0610 S   0  0  0  0  0  0  0  0  0  0  0  0
  -13.1993  -68.5137  -20.0425 O   0  0  0  0  0  0  0  0  0  0  0  0
  -14.4058  -70.3462  -18.8228 O   0  0  0  0  0  0  0  0  0  0  0  0
  -15.3454  -69.5716  -21.1643 C   0  0  0  0  0  0  0  0  0  0  0  0
  -14.8852  -69.4307  -23.0421 Br  0  0  0  0  0  0  0  0  0  0  0  0
  -10.6100  -70.7305  -20.4046 C   0  0  0  0  0  0  0  0  0  0  0  0
  -10.6156  -71.1884  -19.0962 C   0  0  0  0  0  0  0  0  0  0  0  0
   -9.3833  -71.3124  -18.4805 N   0  0  0  0  0  0  0  0  0  0  0  0
   -8.4495  -70.9078  -19.3112 C   0  0  0  0  0  0  0  0  0  0  0  0
   -8.9834  -70.3607  -20.8402 S   0  0  0  0  0  0  0  0  0  0  0  0
  2  1  1  6
  2  3  1  0
  3  4  1  0
  4  5  2  0
  4  6  2  0
  4  7  1  0
  7  8  1  0
  2  9  1  0
  9 10  2  0
 10 11  1  0
 11 12  2  0
 12 13  1  0
 13  9  1  0
M  END
>  <energy_score>  (30) 
-103.151485

>  <name>  (30) 
ZXADTZPZTLKOGO-RXMQYKEDSA-N

>  <distance_score>  (30) 
0.814325

>  <original ID>  (30) 
ZXADTZPZTLKOGO-RXMQYKEDSA-N

>  <HIPPO Compound ID>  (30) 
6140

>  <exports>  (30) 
['/opt/xchem-fragalysis-2/maxwin/BulkDock/OUTPUTS/RdRp_knitwork_thumb_site_2_impure_split4000_batch000_211013.sdf', '/opt/xchem-fragalysis-2/maxwin/BulkDock/OUTPUTS/RdRp_knitwork_thumb_site_2_impure_fragalysis.sdf']

>  <fragmenstein_mode>  (30) 
['expansion']

>  <scratch_subdir>  (30) 
['/opt/xchem-fragalysis-2/maxwin/BulkDock/SCRATCH/211013/C6140-P50']

>  <ref_pdb>  (30) 
d0615a

>  <ref_mols>  (30) 
d0174a,d0615a

>  <original SMILES>  (30) 
C[C@@H](NS(=O)(=O)CBr)c1cncs1

>  <alias>  (30) 
None

>  <tags>  (30) 
['DF curated INTERESTING', 'Thumb Site 2 merge', 'Knitwork impure merge', 'Fragmenstein placed', 'acceptable']

>  <fragmenstein_outcome>  (30) 
['acceptable']

>  <csv_name>  (30) 
RdRp_knitwork_thumb_site_2_impure_split4000_batch000.csv

>  <HIPPO Pose ID>  (30) 
51698

>  <SLURM_JOB_NAME>  (30) 
BulkDock.place:Flavi_NS5_RdRp:RdRp_knitwork_thumb_site_2_impure_split4000_batch000

>  <fragmenstein_runtime>  (30) 
[1.6417837142944336]

>  <fragmenstein_error>  (30) 
['']

>  <SLURM_JOB_ID>  (30) 
211013

>  <inchikey>  (30) 
ZXADTZPZTLKOGO-RXMQYKEDSA-N

$$$$
BXUSHCNUMJPCGE-SECBINFHSA-N
     RDKit          3D

 15 15  0  0  0  0  0  0  0  0999 V2000
  -16.1362  -69.9023  -23.5782 C   0  0  0  0  0  0  0  0  0  0  0  0
  -14.9716  -69.5282  -22.6730 C   0  0  0  0  0  0  0  0  0  0  0  0
  -15.2745  -69.9181  -21.2343 C   0  0  0  0  0  0  0  0  0  0  0  0
  -13.8552  -69.8593  -20.1506 S   0  0  0  0  0  0  0  0  0  0  0  0
  -13.2440  -68.5576  -20.2394 O   0  0  0  0  0  0  0  0  0  0  0  0
  -14.2423  -70.4206  -18.8700 O   0  0  0  0  0  0  0  0  0  0  0  0
  -12.8507  -70.9979  -20.8543 N   0  0  0  0  0  0  0  0  0  0  0  0
  -11.5303  -70.5774  -21.3628 C   0  0  2  0  0  0  0  0  0  0  0  0
  -11.3262  -71.2869  -22.7036 C   0  0  0  0  0  0  0  0  0  0  0  0
  -10.3755  -70.8473  -20.4173 C   0  0  0  0  0  0  0  0  0  0  0  0
  -10.5176  -71.4489  -19.1604 C   0  0  0  0  0  0  0  0  0  0  0  0
   -9.3959  -71.7043  -18.3724 C   0  0  0  0  0  0  0  0  0  0  0  0
   -8.1541  -71.3365  -18.8564 C   0  0  0  0  0  0  0  0  0  0  0  0
   -7.9707  -70.7231  -20.0410 N   0  0  0  0  0  0  0  0  0  0  0  0
   -9.0769  -70.4864  -20.7841 C   0  0  0  0  0  0  0  0  0  0  0  0
  1  2  1  0
  2  3  1  0
  3  4  1  0
  4  5  2  0
  4  6  2  0
  4  7  1  0
  7  8  1  0
  8  9  1  6
  8 10  1  0
 10 11  2  0
 11 12  1  0
 12 13  2  0
 13 14  1  0
 14 15  2  0
 15 10  1  0
M  END
>  <energy_score>  (31) 
-47.517959

>  <name>  (31) 
BXUSHCNUMJPCGE-SECBINFHSA-N

>  <distance_score>  (31) 
0.868567

>  <original ID>  (31) 
BXUSHCNUMJPCGE-SECBINFHSA-N

>  <HIPPO Compound ID>  (31) 
6353

>  <exports>  (31) 
['/opt/xchem-fragalysis-2/maxwin/RdRp_FFF/quotes/JA_curated_and_manual_ordered.sdf']

>  <fragmenstein_mode>  (31) 
expansion

>  <scratch_subdir>  (31) 
/opt/xchem-fragalysis-2/maxwin/BulkDock/SCRATCH/217081/C51748-P196

>  <ref_pdb>  (31) 
d0615a

>  <ref_mols>  (31) 
d0174a,d0615a

>  <original SMILES>  (31) 
CCCS(=O)(=O)N[C@H](C)c1cccnc1

>  <alias>  (31) 
None

>  <tags>  (31) 
['DF curated INTERESTING', 'JA curated YES', 'Knitwork pure merge', 'Fragmenstein placed', 'Green Site/RNA tunnel merge']

>  <fragmenstein_outcome>  (31) 
too moved

>  <csv_name>  (31) 
RdRp_knitwork_green_site_rna_tunnel_pure_split4000_batch010.csv

>  <HIPPO Pose ID>  (31) 
51748

>  <SLURM_JOB_NAME>  (31) 
BulkDock.place:Flavi_NS5_RdRp:RdRp_knitwork_green_site_rna_tunnel_pure_split4000_batch010

>  <fragmenstein_runtime>  (31) 
6.911534

>  <fragmenstein_error>  (31) 
None

>  <SLURM_JOB_ID>  (31) 
217081

>  <inchikey>  (31) 
BXUSHCNUMJPCGE-SECBINFHSA-N

$$$$
HIFQUWMQVAZNTE-SECBINFHSA-N
     RDKit          3D

 18 18  0  0  0  0  0  0  0  0999 V2000
   -9.1280  -71.1623  -22.1925 C   0  0  0  0  0  0  0  0  0  0  0  0
   -9.3567  -71.4385  -20.7172 C   0  0  2  0  0  0  0  0  0  0  0  0
  -10.7210  -70.9318  -20.2262 C   0  0  0  0  0  0  0  0  0  0  0  0
  -11.8741  -71.2952  -21.1651 C   0  0  0  0  0  0  0  0  0  0  0  0
  -13.1734  -71.2258  -20.4862 N   0  0  0  0  0  0  0  0  0  0  0  0
  -13.8817  -69.7555  -20.1464 S   0  0  0  0  0  0  0  0  0  0  0  0
  -12.8935  -68.7143  -20.2924 O   0  0  0  0  0  0  0  0  0  0  0  0
  -14.5234  -69.9829  -18.8624 O   0  0  0  0  0  0  0  0  0  0  0  0
  -15.1792  -69.5356  -21.3751 C   0  0  0  0  0  0  0  0  0  0  0  0
  -14.7486  -69.7970  -22.7943 C   0  0  0  0  0  0  0  0  0  0  0  0
  -13.6541  -69.1556  -23.3783 C   0  0  0  0  0  0  0  0  0  0  0  0
  -13.3491  -69.4004  -24.7086 C   0  0  0  0  0  0  0  0  0  0  0  0
  -14.0852  -70.2000  -25.5033 N   0  0  0  0  0  0  0  0  0  0  0  0
  -15.1716  -70.7721  -24.9482 C   0  0  0  0  0  0  0  0  0  0  0  0
  -15.5326  -70.6143  -23.6177 C   0  0  0  0  0  0  0  0  0  0  0  0
   -8.2210  -70.8333  -19.8978 C   0  0  0  0  0  0  0  0  0  0  0  0
   -7.0242  -71.3187  -20.3104 F   0  0  0  0  0  0  0  0  0  0  0  0
   -8.3558  -71.1992  -18.5974 F   0  0  0  0  0  0  0  0  0  0  0  0
  2  1  1  6
  2  3  1  0
  3  4  1  0
  4  5  1  0
  5  6  1  0
  6  7  2  0
  6  8  2  0
  6  9  1  0
  9 10  1  0
 10 11  2  0
 11 12  1  0
 12 13  2  0
 13 14  1  0
 14 15  2  0
  2 16  1  0
 16 17  1  0
 16 18  1  0
 15 10  1  0
M  END
>  <energy_score>  (32) 
-29.409473

>  <name>  (32) 
HIFQUWMQVAZNTE-SECBINFHSA-N

>  <distance_score>  (32) 
0.831871

>  <original ID>  (32) 
HIFQUWMQVAZNTE-SECBINFHSA-N

>  <HIPPO Compound ID>  (32) 
6465

>  <exports>  (32) 
['/opt/xchem-fragalysis-2/maxwin/BulkDock/OUTPUTS/RdRp_knitwork_thumb_site_2_impure_split4000_batch000_211013.sdf', '/opt/xchem-fragalysis-2/maxwin/BulkDock/OUTPUTS/RdRp_knitwork_thumb_site_2_impure_fragalysis.sdf']

>  <fragmenstein_mode>  (32) 
['expansion']

>  <scratch_subdir>  (32) 
['/opt/xchem-fragalysis-2/maxwin/BulkDock/SCRATCH/211013/C6465-P17']

>  <ref_pdb>  (32) 
d0174a

>  <ref_mols>  (32) 
d0174a,d0615a

>  <original SMILES>  (32) 
C[C@H](CCNS(=O)(=O)Cc1ccncc1)C(F)F

>  <alias>  (32) 
None

>  <tags>  (32) 
['DF curated INTERESTING', 'Thumb Site 2 merge', 'Knitwork impure merge', 'Fragmenstein placed', 'acceptable']

>  <fragmenstein_outcome>  (32) 
['acceptable']

>  <csv_name>  (32) 
RdRp_knitwork_thumb_site_2_impure_split4000_batch000.csv

>  <HIPPO Pose ID>  (32) 
51781

>  <SLURM_JOB_NAME>  (32) 
BulkDock.place:Flavi_NS5_RdRp:RdRp_knitwork_thumb_site_2_impure_split4000_batch000

>  <fragmenstein_runtime>  (32) 
[2.8243508338928223]

>  <fragmenstein_error>  (32) 
['']

>  <SLURM_JOB_ID>  (32) 
211013

>  <inchikey>  (32) 
HIFQUWMQVAZNTE-SECBINFHSA-N

$$$$
XVUBRPZAPHYKMV-JTQLQIEISA-N
     RDKit          3D

 16 16  0  0  0  0  0  0  0  0999 V2000
  -10.2691  -71.0248  -23.6125 C   0  0  0  0  0  0  0  0  0  0  0  0
  -11.0752  -70.4272  -22.4714 C   0  0  0  0  0  0  0  0  0  0  0  0
  -11.2917  -71.4209  -21.3174 C   0  0  2  0  0  0  0  0  0  0  0  0
  -12.7051  -71.4142  -20.9103 N   0  0  0  0  0  0  0  0  0  0  0  0
  -13.4081  -70.1045  -20.1907 S   0  0  0  0  0  0  0  0  0  0  0  0
  -13.7855  -70.5062  -18.8521 O   0  0  0  0  0  0  0  0  0  0  0  0
  -12.6983  -68.8853  -20.4585 O   0  0  0  0  0  0  0  0  0  0  0  0
  -14.8259  -70.0985  -21.0973 N   0  0  0  0  0  0  0  0  0  0  0  0
  -14.6898  -69.7568  -22.5347 C   0  0  0  0  0  0  0  0  0  0  0  0
  -15.8725  -69.3043  -20.4600 C   0  0  0  0  0  0  0  0  0  0  0  0
  -10.2745  -71.3589  -20.1856 C   0  0  0  0  0  0  0  0  0  0  0  0
  -10.5709  -71.8870  -18.9225 C   0  0  0  0  0  0  0  0  0  0  0  0
   -9.5897  -71.8960  -17.9415 C   0  0  0  0  0  0  0  0  0  0  0  0
   -8.3367  -71.4357  -18.1225 N   0  0  0  0  0  0  0  0  0  0  0  0
   -8.0523  -70.9440  -19.3448 C   0  0  0  0  0  0  0  0  0  0  0  0
   -8.9691  -70.8824  -20.3841 C   0  0  0  0  0  0  0  0  0  0  0  0
  1  2  1  0
  3  2  1  6
  3  4  1  0
  4  5  1  0
  5  6  2  0
  5  7  2  0
  5  8  1  0
  8  9  1  0
  8 10  1  0
  3 11  1  0
 11 12  2  0
 12 13  1  0
 13 14  2  0
 14 15  1  0
 15 16  2  0
 16 11  1  0
M  END
>  <energy_score>  (33) 
-27.994881

>  <name>  (33) 
XVUBRPZAPHYKMV-JTQLQIEISA-N

>  <distance_score>  (33) 
0.765163

>  <original ID>  (33) 
XVUBRPZAPHYKMV-JTQLQIEISA-N

>  <HIPPO Compound ID>  (33) 
6527

>  <exports>  (33) 
['/opt/xchem-fragalysis-2/maxwin/BulkDock/OUTPUTS/RdRp_knitwork_thumb_site_2_impure_split4000_batch000_211013.sdf', '/opt/xchem-fragalysis-2/maxwin/BulkDock/OUTPUTS/RdRp_knitwork_thumb_site_2_impure_fragalysis.sdf']

>  <fragmenstein_mode>  (33) 
['expansion']

>  <scratch_subdir>  (33) 
['/opt/xchem-fragalysis-2/maxwin/BulkDock/SCRATCH/211013/C6527-P17']

>  <ref_pdb>  (33) 
d0174a

>  <ref_mols>  (33) 
d0174a,d0615a

>  <original SMILES>  (33) 
CC[C@H](NS(=O)(=O)N(C)C)c1ccncc1

>  <alias>  (33) 
None

>  <tags>  (33) 
['DF curated INTERESTING', 'Thumb Site 2 merge', 'Knitwork impure merge', 'AC curated YES', 'Fragmenstein placed', 'acceptable']

>  <fragmenstein_outcome>  (33) 
['acceptable']

>  <csv_name>  (33) 
RdRp_knitwork_thumb_site_2_impure_split4000_batch000.csv

>  <HIPPO Pose ID>  (33) 
51809

>  <SLURM_JOB_NAME>  (33) 
BulkDock.place:Flavi_NS5_RdRp:RdRp_knitwork_thumb_site_2_impure_split4000_batch000

>  <fragmenstein_runtime>  (33) 
[3.3061165809631348]

>  <fragmenstein_error>  (33) 
['']

>  <SLURM_JOB_ID>  (33) 
211013

>  <inchikey>  (33) 
XVUBRPZAPHYKMV-JTQLQIEISA-N

$$$$
MHZFNJCMRZQBRV-QMMMGPOBSA-N
     RDKit          3D

 15 15  0  0  0  0  0  0  0  0999 V2000
  -11.6979  -70.4949  -22.7065 C   0  0  0  0  0  0  0  0  0  0  0  0
  -11.8101  -71.3071  -21.4189 C   0  0  2  0  0  0  0  0  0  0  0  0
  -13.2002  -71.2243  -20.8635 N   0  0  0  0  0  0  0  0  0  0  0  0
  -13.7758  -69.8111  -20.1844 S   0  0  0  0  0  0  0  0  0  0  0  0
  -12.7874  -68.7707  -20.2998 O   0  0  0  0  0  0  0  0  0  0  0  0
  -14.2496  -70.2264  -18.8732 O   0  0  0  0  0  0  0  0  0  0  0  0
  -15.2153  -69.3490  -21.1349 C   0  0  0  0  0  0  0  0  0  0  0  0
  -14.9778  -69.5721  -22.5493 C   0  0  0  0  0  0  0  0  0  0  0  0
  -14.9244  -69.7860  -23.6896 N   0  0  0  0  0  0  0  0  0  0  0  0
  -10.6487  -71.1302  -20.4398 C   0  0  0  0  0  0  0  0  0  0  0  0
  -10.7464  -71.5784  -19.1210 C   0  0  0  0  0  0  0  0  0  0  0  0
   -9.6091  -71.5809  -18.3132 C   0  0  0  0  0  0  0  0  0  0  0  0
   -8.3990  -71.1440  -18.8345 C   0  0  0  0  0  0  0  0  0  0  0  0
   -8.3793  -70.7037  -20.1442 C   0  0  0  0  0  0  0  0  0  0  0  0
   -9.4651  -70.6990  -20.9479 N   0  0  0  0  0  0  0  0  0  0  0  0
  2  1  1  6
  2  3  1  0
  3  4  1  0
  4  5  2  0
  4  6  2  0
  4  7  1  0
  7  8  1  0
  8  9  3  0
  2 10  1  0
 10 11  2  0
 11 12  1  0
 12 13  2  0
 13 14  1  0
 14 15  2  0
 15 10  1  0
M  END
>  <energy_score>  (34) 
-26.475849

>  <name>  (34) 
MHZFNJCMRZQBRV-QMMMGPOBSA-N

>  <distance_score>  (34) 
0.604589

>  <original ID>  (34) 
MHZFNJCMRZQBRV-QMMMGPOBSA-N

>  <HIPPO Compound ID>  (34) 
6543

>  <exports>  (34) 
nan

>  <fragmenstein_mode>  (34) 
expansion

>  <scratch_subdir>  (34) 
/opt/xchem-fragalysis-2/maxwin/BulkDock/SCRATCH/220464/C51832-P150

>  <ref_pdb>  (34) 
d0615a

>  <ref_mols>  (34) 
d0174a,d0615a

>  <original SMILES>  (34) 
C[C@H](NS(=O)(=O)CC#N)c1ccccn1

>  <alias>  (34) 
None

>  <tags>  (34) 
['DF curated INTERESTING', 'Knitwork impure merge', 'Fragmenstein placed', 'Green Site/RNA tunnel merge']

>  <fragmenstein_outcome>  (34) 
too moved

>  <csv_name>  (34) 
RdRp_knitwork_green_site_rna_tunnel_impure_split4000_batch013.csv

>  <HIPPO Pose ID>  (34) 
51832

>  <SLURM_JOB_NAME>  (34) 
BulkDock.place:Flavi_NS5_RdRp:RdRp_knitwork_green_site_rna_tunnel_impure_split4000_batch013

>  <fragmenstein_runtime>  (34) 
2.559171

>  <fragmenstein_error>  (34) 
None

>  <SLURM_JOB_ID>  (34) 
220464

>  <inchikey>  (34) 
MHZFNJCMRZQBRV-QMMMGPOBSA-N

$$$$
VCOMALJTOWPSSG-GFCCVEGCSA-N
     RDKit          3D

 18 18  0  0  0  0  0  0  0  0999 V2000
  -10.1376  -71.1263  -23.3912 C   0  0  0  0  0  0  0  0  0  0  0  0
  -11.4664  -71.3405  -22.6825 C   0  0  0  0  0  0  0  0  0  0  0  0
  -11.6536  -70.5642  -21.3650 C   0  0  1  0  0  0  0  0  0  0  0  0
  -13.0173  -70.8968  -20.8757 N   0  0  0  0  0  0  0  0  0  0  0  0
  -13.8702  -69.7214  -20.0669 S   0  0  0  0  0  0  0  0  0  0  0  0
  -13.0909  -68.5120  -20.0421 O   0  0  0  0  0  0  0  0  0  0  0  0
  -14.3175  -70.3507  -18.8384 O   0  0  0  0  0  0  0  0  0  0  0  0
  -15.3039  -69.4481  -21.1025 C   0  0  0  0  0  0  0  0  0  0  0  0
  -15.0508  -69.4917  -22.6089 C   0  0  0  0  0  0  0  0  0  0  0  0
  -15.8049  -70.6472  -23.3017 C   0  0  0  0  0  0  0  0  0  0  0  0
  -15.2839  -72.0226  -22.8952 C   0  0  0  0  0  0  0  0  0  0  0  0
  -15.7307  -70.4998  -24.8206 C   0  0  0  0  0  0  0  0  0  0  0  0
  -10.5268  -70.8448  -20.3754 C   0  0  0  0  0  0  0  0  0  0  0  0
  -10.6424  -71.7686  -19.3362 C   0  0  0  0  0  0  0  0  0  0  0  0
   -9.5230  -72.0653  -18.5572 C   0  0  0  0  0  0  0  0  0  0  0  0
   -8.3121  -71.4476  -18.8347 C   0  0  0  0  0  0  0  0  0  0  0  0
   -8.2796  -70.5290  -19.8645 C   0  0  0  0  0  0  0  0  0  0  0  0
   -9.3513  -70.2110  -20.6208 N   0  0  0  0  0  0  0  0  0  0  0  0
  1  2  1  0
  3  2  1  6
  3  4  1  0
  4  5  1  0
  5  6  2  0
  5  7  2  0
  5  8  1  0
  8  9  1  0
  9 10  1  0
 10 11  1  0
 10 12  1  0
  3 13  1  0
 13 14  2  0
 14 15  1  0
 15 16  2  0
 16 17  1  0
 17 18  2  0
 18 13  1  0
M  END
>  <energy_score>  (35) 
-33.274854

>  <name>  (35) 
VCOMALJTOWPSSG-GFCCVEGCSA-N

>  <distance_score>  (35) 
0.701764

>  <original ID>  (35) 
VCOMALJTOWPSSG-GFCCVEGCSA-N

>  <HIPPO Compound ID>  (35) 
6567

>  <exports>  (35) 
nan

>  <fragmenstein_mode>  (35) 
expansion

>  <scratch_subdir>  (35) 
/opt/xchem-fragalysis-2/maxwin/BulkDock/SCRATCH/220461/C51843-P150

>  <ref_pdb>  (35) 
d0615a

>  <ref_mols>  (35) 
d0174a,d0615a

>  <original SMILES>  (35) 
CC[C@@H](NS(=O)(=O)CCC(C)C)c1ccccn1

>  <alias>  (35) 
None

>  <tags>  (35) 
['DF curated INTERESTING', 'Knitwork impure merge', 'Fragmenstein placed', 'Green Site/RNA tunnel merge']

>  <fragmenstein_outcome>  (35) 
too moved

>  <csv_name>  (35) 
RdRp_knitwork_green_site_rna_tunnel_impure_split4000_batch010.csv

>  <HIPPO Pose ID>  (35) 
51843

>  <SLURM_JOB_NAME>  (35) 
BulkDock.place:Flavi_NS5_RdRp:RdRp_knitwork_green_site_rna_tunnel_impure_split4000_batch010

>  <fragmenstein_runtime>  (35) 
2.389979

>  <fragmenstein_error>  (35) 
None

>  <SLURM_JOB_ID>  (35) 
220461

>  <inchikey>  (35) 
VCOMALJTOWPSSG-GFCCVEGCSA-N

$$$$
DNBGHHYGVGYANP-OLZOCXBDSA-N
     RDKit          3D

 19 19  0  0  0  0  0  0  0  0999 V2000
  -16.9788  -70.2765  -25.9613 C   0  0  0  0  0  0  0  0  0  0  0  0
  -15.7975  -70.6609  -25.0665 C   0  0  0  0  0  0  0  0  0  0  0  0
  -14.4886  -70.4483  -25.8274 C   0  0  0  0  0  0  0  0  0  0  0  0
  -15.9311  -69.9652  -23.6981 C   0  0  0  0  0  0  0  0  0  0  0  0
  -14.6606  -69.9162  -22.8234 C   0  0  1  0  0  0  0  0  0  0  0  0
  -13.9033  -68.6257  -23.0951 C   0  0  0  0  0  0  0  0  0  0  0  0
  -15.0546  -70.0754  -21.3548 C   0  0  0  0  0  0  0  0  0  0  0  0
  -13.8257  -69.7332  -20.1036 S   0  0  0  0  0  0  0  0  0  0  0  0
  -13.8725  -68.3130  -19.8451 O   0  0  0  0  0  0  0  0  0  0  0  0
  -14.0063  -70.6568  -19.0043 O   0  0  0  0  0  0  0  0  0  0  0  0
  -12.3459  -69.9678  -20.7760 N   0  0  0  0  0  0  0  0  0  0  0  0
  -11.6840  -71.2402  -21.0071 C   0  0  1  0  0  0  0  0  0  0  0  0
  -11.2833  -71.3004  -22.4873 C   0  0  0  0  0  0  0  0  0  0  0  0
  -10.4728  -71.3463  -20.0969 C   0  0  0  0  0  0  0  0  0  0  0  0
  -10.6250  -71.9082  -18.8258 C   0  0  0  0  0  0  0  0  0  0  0  0
   -9.5232  -71.9794  -17.9883 C   0  0  0  0  0  0  0  0  0  0  0  0
   -8.2965  -71.5239  -18.3160 N   0  0  0  0  0  0  0  0  0  0  0  0
   -8.1638  -70.9729  -19.5406 C   0  0  0  0  0  0  0  0  0  0  0  0
   -9.2067  -70.8514  -20.4464 C   0  0  0  0  0  0  0  0  0  0  0  0
  1  2  1  0
  2  3  1  0
  2  4  1  0
  4  5  1  0
  5  6  1  1
  5  7  1  0
  7  8  1  0
  8  9  2  0
  8 10  2  0
  8 11  1  0
 11 12  1  0
 12 13  1  6
 12 14  1  0
 14 15  2  0
 15 16  1  0
 16 17  2  0
 17 18  1  0
 18 19  2  0
 19 14  1  0
M  END
>  <energy_score>  (36) 
-46.360435

>  <name>  (36) 
DNBGHHYGVGYANP-OLZOCXBDSA-N

>  <distance_score>  (36) 
0.762985

>  <original ID>  (36) 
DNBGHHYGVGYANP-OLZOCXBDSA-N

>  <HIPPO Compound ID>  (36) 
6634

>  <exports>  (36) 
nan

>  <fragmenstein_mode>  (36) 
expansion

>  <scratch_subdir>  (36) 
/opt/xchem-fragalysis-2/maxwin/BulkDock/SCRATCH/220462/C51872-P150

>  <ref_pdb>  (36) 
d0174a

>  <ref_mols>  (36) 
d0174a,d0615a

>  <original SMILES>  (36) 
CC(C)C[C@@H](C)CS(=O)(=O)N[C@@H](C)c1ccncc1

>  <alias>  (36) 
None

>  <tags>  (36) 
['DF curated INTERESTING', 'Knitwork impure merge', 'Fragmenstein placed', 'Green Site/RNA tunnel merge']

>  <fragmenstein_outcome>  (36) 
too moved

>  <csv_name>  (36) 
RdRp_knitwork_green_site_rna_tunnel_impure_split4000_batch011.csv

>  <HIPPO Pose ID>  (36) 
51872

>  <SLURM_JOB_NAME>  (36) 
BulkDock.place:Flavi_NS5_RdRp:RdRp_knitwork_green_site_rna_tunnel_impure_split4000_batch011

>  <fragmenstein_runtime>  (36) 
12.349896

>  <fragmenstein_error>  (36) 
None

>  <SLURM_JOB_ID>  (36) 
220462

>  <inchikey>  (36) 
DNBGHHYGVGYANP-OLZOCXBDSA-N

$$$$
DNBGHHYGVGYANP-OLZOCXBDSA-N
     RDKit          3D

 19 19  0  0  0  0  0  0  0  0999 V2000
  -15.6950  -70.7735  -25.7501 C   0  0  0  0  0  0  0  0  0  0  0  0
  -14.7045  -70.4961  -24.6142 C   0  0  0  0  0  0  0  0  0  0  0  0
  -13.4378  -69.8908  -25.2246 C   0  0  0  0  0  0  0  0  0  0  0  0
  -15.4046  -69.6009  -23.5743 C   0  0  0  0  0  0  0  0  0  0  0  0
  -14.5973  -69.2162  -22.3251 C   0  0  1  0  0  0  0  0  0  0  0  0
  -15.1390  -67.9275  -21.7042 C   0  0  0  0  0  0  0  0  0  0  0  0
  -14.7082  -70.3219  -21.2909 C   0  0  0  0  0  0  0  0  0  0  0  0
  -13.4892  -70.2044  -19.9825 S   0  0  0  0  0  0  0  0  0  0  0  0
  -12.6514  -69.0430  -20.1385 O   0  0  0  0  0  0  0  0  0  0  0  0
  -14.1696  -70.4779  -18.7299 O   0  0  0  0  0  0  0  0  0  0  0  0
  -12.6014  -71.5752  -20.2919 N   0  0  0  0  0  0  0  0  0  0  0  0
  -11.3378  -71.5993  -21.0468 C   0  0  1  0  0  0  0  0  0  0  0  0
  -11.4199  -70.8362  -22.3620 C   0  0  0  0  0  0  0  0  0  0  0  0
  -10.1205  -71.3454  -20.1801 C   0  0  0  0  0  0  0  0  0  0  0  0
  -10.0445  -71.9315  -18.9069 C   0  0  0  0  0  0  0  0  0  0  0  0
   -8.8851  -71.7961  -18.1631 C   0  0  0  0  0  0  0  0  0  0  0  0
   -7.7973  -71.1318  -18.5917 N   0  0  0  0  0  0  0  0  0  0  0  0
   -7.8791  -70.5681  -19.8162 C   0  0  0  0  0  0  0  0  0  0  0  0
   -9.0001  -70.6390  -20.6308 C   0  0  0  0  0  0  0  0  0  0  0  0
  1  2  1  0
  2  3  1  0
  2  4  1  0
  4  5  1  0
  5  6  1  1
  5  7  1  0
  7  8  1  0
  8  9  2  0
  8 10  2  0
  8 11  1  0
 11 12  1  0
 12 13  1  6
 12 14  1  0
 14 15  2  0
 15 16  1  0
 16 17  2  0
 17 18  1  0
 18 19  2  0
 19 14  1  0
M  END
>  <energy_score>  (37) 
-45.410275

>  <name>  (37) 
DNBGHHYGVGYANP-OLZOCXBDSA-N

>  <distance_score>  (37) 
0.812185

>  <original ID>  (37) 
DNBGHHYGVGYANP-OLZOCXBDSA-N

>  <HIPPO Compound ID>  (37) 
6634

>  <exports>  (37) 
['/opt/xchem-fragalysis-2/maxwin/BulkDock/OUTPUTS/RdRp_knitwork_thumb_site_2_impure_split4000_batch000_211013.sdf', '/opt/xchem-fragalysis-2/maxwin/BulkDock/OUTPUTS/RdRp_knitwork_thumb_site_2_impure_fragalysis.sdf']

>  <fragmenstein_mode>  (37) 
['expansion']

>  <scratch_subdir>  (37) 
['/opt/xchem-fragalysis-2/maxwin/BulkDock/SCRATCH/211013/C6634-P50']

>  <ref_pdb>  (37) 
d0615a

>  <ref_mols>  (37) 
d0174a,d0615a

>  <original SMILES>  (37) 
CC(C)C[C@@H](C)CS(=O)(=O)N[C@@H](C)c1ccncc1

>  <alias>  (37) 
None

>  <tags>  (37) 
['DF curated INTERESTING', 'Thumb Site 2 merge', 'Knitwork impure merge', 'Fragmenstein placed', 'acceptable']

>  <fragmenstein_outcome>  (37) 
['acceptable']

>  <csv_name>  (37) 
RdRp_knitwork_thumb_site_2_impure_split4000_batch000.csv

>  <HIPPO Pose ID>  (37) 
51874

>  <SLURM_JOB_NAME>  (37) 
BulkDock.place:Flavi_NS5_RdRp:RdRp_knitwork_thumb_site_2_impure_split4000_batch000

>  <fragmenstein_runtime>  (37) 
[7.358105659484863]

>  <fragmenstein_error>  (37) 
['']

>  <SLURM_JOB_ID>  (37) 
211013

>  <inchikey>  (37) 
DNBGHHYGVGYANP-OLZOCXBDSA-N

$$$$
HSBYGEOWLQMFBK-SNVBAGLBSA-N
     RDKit          3D

 15 15  0  0  0  0  0  0  0  0999 V2000
  -12.6478  -70.9076  -23.7507 C   0  0  0  0  0  0  0  0  0  0  0  0
  -11.5314  -71.3630  -22.7959 C   0  0  0  0  0  0  0  0  0  0  0  0
  -10.1882  -71.1832  -23.5100 C   0  0  0  0  0  0  0  0  0  0  0  0
  -11.6169  -70.6243  -21.4326 C   0  0  1  0  0  0  0  0  0  0  0  0
  -12.9440  -70.9255  -20.8500 N   0  0  0  0  0  0  0  0  0  0  0  0
  -13.7908  -69.7239  -20.0657 S   0  0  0  0  0  0  0  0  0  0  0  0
  -15.0923  -69.3877  -21.2329 C   0  0  0  0  0  0  0  0  0  0  0  0
  -12.9591  -68.5538  -19.9610 O   0  0  0  0  0  0  0  0  0  0  0  0
  -14.3708  -70.3485  -18.8937 O   0  0  0  0  0  0  0  0  0  0  0  0
  -10.4726  -70.9601  -20.4806 C   0  0  0  0  0  0  0  0  0  0  0  0
  -10.5689  -71.9331  -19.4782 C   0  0  0  0  0  0  0  0  0  0  0  0
   -9.4703  -72.1809  -18.6644 C   0  0  0  0  0  0  0  0  0  0  0  0
   -8.2850  -71.5509  -18.7823 N   0  0  0  0  0  0  0  0  0  0  0  0
   -8.1958  -70.6264  -19.7591 C   0  0  0  0  0  0  0  0  0  0  0  0
   -9.2455  -70.2898  -20.6021 C   0  0  0  0  0  0  0  0  0  0  0  0
  1  2  1  0
  2  3  1  0
  2  4  1  0
  4  5  1  1
  5  6  1  0
  6  7  1  0
  6  8  2  0
  6  9  2  0
  4 10  1  0
 10 11  2  0
 11 12  1  0
 12 13  2  0
 13 14  1  0
 14 15  2  0
 15 10  1  0
M  END
>  <energy_score>  (38) 
-37.571717

>  <name>  (38) 
HSBYGEOWLQMFBK-SNVBAGLBSA-N

>  <distance_score>  (38) 
0.748127

>  <original ID>  (38) 
HSBYGEOWLQMFBK-SNVBAGLBSA-N

>  <HIPPO Compound ID>  (38) 
6710

>  <exports>  (38) 
['/opt/xchem-fragalysis-2/maxwin/BulkDock/OUTPUTS/RdRp_knitwork_thumb_site_2_impure_split4000_batch000_211013.sdf', '/opt/xchem-fragalysis-2/maxwin/BulkDock/OUTPUTS/RdRp_knitwork_thumb_site_2_impure_fragalysis.sdf']

>  <fragmenstein_mode>  (38) 
['expansion']

>  <scratch_subdir>  (38) 
['/opt/xchem-fragalysis-2/maxwin/BulkDock/SCRATCH/211013/C6710-P50']

>  <ref_pdb>  (38) 
d0615a

>  <ref_mols>  (38) 
d0174a,d0615a

>  <original SMILES>  (38) 
CC(C)[C@@H](NS(C)(=O)=O)c1ccncc1

>  <alias>  (38) 
None

>  <tags>  (38) 
['DF curated INTERESTING', 'Thumb Site 2 merge', 'Knitwork impure merge', 'Fragmenstein placed', 'acceptable']

>  <fragmenstein_outcome>  (38) 
['acceptable']

>  <csv_name>  (38) 
RdRp_knitwork_thumb_site_2_impure_split4000_batch000.csv

>  <HIPPO Pose ID>  (38) 
51889

>  <SLURM_JOB_NAME>  (38) 
BulkDock.place:Flavi_NS5_RdRp:RdRp_knitwork_thumb_site_2_impure_split4000_batch000

>  <fragmenstein_runtime>  (38) 
[2.4796218872070312]

>  <fragmenstein_error>  (38) 
['']

>  <SLURM_JOB_ID>  (38) 
211013

>  <inchikey>  (38) 
HSBYGEOWLQMFBK-SNVBAGLBSA-N

$$$$
FKYZVQMLDJQCKR-SSDOTTSWSA-N
     RDKit          3D

 13 13  0  0  0  0  0  0  0  0999 V2000
  -11.5078  -71.1326  -22.7539 C   0  0  0  0  0  0  0  0  0  0  0  0
  -11.6194  -70.5301  -21.3537 C   0  0  1  0  0  0  0  0  0  0  0  0
  -12.9387  -70.9471  -20.8153 N   0  0  0  0  0  0  0  0  0  0  0  0
  -13.8887  -69.7882  -20.0758 S   0  0  0  0  0  0  0  0  0  0  0  0
  -15.2058  -69.6020  -21.2588 C   0  0  0  0  0  0  0  0  0  0  0  0
  -13.1541  -68.5520  -20.0001 O   0  0  0  0  0  0  0  0  0  0  0  0
  -14.4060  -70.4163  -18.8772 O   0  0  0  0  0  0  0  0  0  0  0  0
  -10.4286  -70.8890  -20.4644 C   0  0  0  0  0  0  0  0  0  0  0  0
  -10.5648  -71.0522  -19.0838 C   0  0  0  0  0  0  0  0  0  0  0  0
   -9.4441  -71.3634  -18.3146 C   0  0  0  0  0  0  0  0  0  0  0  0
   -8.2054  -71.4747  -18.9286 C   0  0  0  0  0  0  0  0  0  0  0  0
   -8.1403  -71.2700  -20.2935 C   0  0  0  0  0  0  0  0  0  0  0  0
   -9.2141  -70.9846  -21.0635 N   0  0  0  0  0  0  0  0  0  0  0  0
  2  1  1  6
  2  3  1  0
  3  4  1  0
  4  5  1  0
  4  6  2  0
  4  7  2  0
  2  8  1  0
  8  9  2  0
  9 10  1  0
 10 11  2  0
 11 12  1  0
 12 13  2  0
 13  8  1  0
M  END
>  <energy_score>  (39) 
-27.526253

>  <name>  (39) 
FKYZVQMLDJQCKR-SSDOTTSWSA-N

>  <distance_score>  (39) 
0.787764

>  <original ID>  (39) 
FKYZVQMLDJQCKR-SSDOTTSWSA-N

>  <HIPPO Compound ID>  (39) 
6745

>  <exports>  (39) 
['/opt/xchem-fragalysis-2/maxwin/BulkDock/OUTPUTS/RdRp_knitwork_thumb_site_2_impure_split4000_batch000_211013.sdf', '/opt/xchem-fragalysis-2/maxwin/BulkDock/OUTPUTS/RdRp_knitwork_thumb_site_2_impure_fragalysis.sdf']

>  <fragmenstein_mode>  (39) 
['expansion']

>  <scratch_subdir>  (39) 
['/opt/xchem-fragalysis-2/maxwin/BulkDock/SCRATCH/211013/C6745-P50']

>  <ref_pdb>  (39) 
d0615a

>  <ref_mols>  (39) 
d0174a,d0615a

>  <original SMILES>  (39) 
C[C@@H](NS(C)(=O)=O)c1ccccn1

>  <alias>  (39) 
None

>  <tags>  (39) 
['DF curated INTERESTING', 'Thumb Site 2 merge', 'Knitwork impure merge', 'Fragmenstein placed', 'acceptable']

>  <fragmenstein_outcome>  (39) 
['acceptable']

>  <csv_name>  (39) 
RdRp_knitwork_thumb_site_2_impure_split4000_batch000.csv

>  <HIPPO Pose ID>  (39) 
51903

>  <SLURM_JOB_NAME>  (39) 
BulkDock.place:Flavi_NS5_RdRp:RdRp_knitwork_thumb_site_2_impure_split4000_batch000

>  <fragmenstein_runtime>  (39) 
[1.6375768184661865]

>  <fragmenstein_error>  (39) 
['']

>  <SLURM_JOB_ID>  (39) 
211013

>  <inchikey>  (39) 
FKYZVQMLDJQCKR-SSDOTTSWSA-N

$$$$
KGPMAROHLPCGEI-SNVBAGLBSA-N
     RDKit          3D

 21 21  0  0  0  0  0  0  0  0999 V2000
  -10.1222  -71.1526  -23.6117 C   0  0  0  0  0  0  0  0  0  0  0  0
  -11.3929  -71.4030  -22.8167 C   0  0  0  0  0  0  0  0  0  0  0  0
  -11.4708  -70.6477  -21.4846 C   0  0  1  0  0  0  0  0  0  0  0  0
  -12.8132  -70.8897  -20.9099 N   0  0  0  0  0  0  0  0  0  0  0  0
  -13.6044  -69.6298  -20.1816 S   0  0  0  0  0  0  0  0  0  0  0  0
  -12.6067  -68.7792  -19.5863 O   0  0  0  0  0  0  0  0  0  0  0  0
  -14.6667  -70.1986  -19.3818 O   0  0  0  0  0  0  0  0  0  0  0  0
  -14.3139  -68.7121  -21.5249 C   0  0  0  0  0  0  0  0  0  0  0  0
  -15.5650  -69.2896  -22.1352 C   0  0  0  0  0  0  0  0  0  0  0  0
  -15.2964  -70.3757  -23.1498 C   0  0  0  0  0  0  0  0  0  0  0  0
  -14.3132  -69.9682  -23.9904 F   0  0  0  0  0  0  0  0  0  0  0  0
  -14.8276  -71.4821  -22.5122 F   0  0  0  0  0  0  0  0  0  0  0  0
  -16.5590  -70.7074  -23.9352 C   0  0  0  0  0  0  0  0  0  0  0  0
  -17.0924  -69.5903  -24.5032 F   0  0  0  0  0  0  0  0  0  0  0  0
  -16.2717  -71.5604  -24.9491 F   0  0  0  0  0  0  0  0  0  0  0  0
  -10.3619  -71.0236  -20.5236 C   0  0  0  0  0  0  0  0  0  0  0  0
  -10.5022  -72.0205  -19.5518 C   0  0  0  0  0  0  0  0  0  0  0  0
   -9.4355  -72.3331  -18.7118 C   0  0  0  0  0  0  0  0  0  0  0  0
   -8.2461  -71.6462  -18.8767 C   0  0  0  0  0  0  0  0  0  0  0  0
   -8.0657  -70.6759  -19.7942 N   0  0  0  0  0  0  0  0  0  0  0  0
   -9.1246  -70.3817  -20.5846 C   0  0  0  0  0  0  0  0  0  0  0  0
  1  2  1  0
  3  2  1  6
  3  4  1  0
  4  5  1  0
  5  6  2  0
  5  7  2  0
  5  8  1  0
  8  9  1  0
  9 10  1  0
 10 11  1  0
 10 12  1  0
 10 13  1  0
 13 14  1  0
 13 15  1  0
  3 16  1  0
 16 17  2  0
 17 18  1  0
 18 19  2  0
 19 20  1  0
 20 21  2  0
 21 16  1  0
M  END
>  <energy_score>  (40) 
-66.53151

>  <name>  (40) 
KGPMAROHLPCGEI-SNVBAGLBSA-N

>  <distance_score>  (40) 
0.923923

>  <original ID>  (40) 
KGPMAROHLPCGEI-SNVBAGLBSA-N

>  <HIPPO Compound ID>  (40) 
6950

>  <exports>  (40) 
['/opt/xchem-fragalysis-2/maxwin/BulkDock/OUTPUTS/RdRp_knitwork_thumb_site_2_impure_split4000_batch000_211013.sdf', '/opt/xchem-fragalysis-2/maxwin/BulkDock/OUTPUTS/RdRp_knitwork_thumb_site_2_impure_fragalysis.sdf']

>  <fragmenstein_mode>  (40) 
['expansion']

>  <scratch_subdir>  (40) 
['/opt/xchem-fragalysis-2/maxwin/BulkDock/SCRATCH/211013/C6950-P50']

>  <ref_pdb>  (40) 
d0615a

>  <ref_mols>  (40) 
d0174a,d0615a

>  <original SMILES>  (40) 
CC[C@@H](NS(=O)(=O)CCC(F)(F)C(F)F)c1cccnc1

>  <alias>  (40) 
None

>  <tags>  (40) 
['DF curated INTERESTING', 'Thumb Site 2 merge', 'Knitwork impure merge', 'AC curated YES', 'Fragmenstein placed', 'acceptable']

>  <fragmenstein_outcome>  (40) 
['acceptable']

>  <csv_name>  (40) 
RdRp_knitwork_thumb_site_2_impure_split4000_batch000.csv

>  <HIPPO Pose ID>  (40) 
51980

>  <SLURM_JOB_NAME>  (40) 
BulkDock.place:Flavi_NS5_RdRp:RdRp_knitwork_thumb_site_2_impure_split4000_batch000

>  <fragmenstein_runtime>  (40) 
[3.2299387454986572]

>  <fragmenstein_error>  (40) 
['']

>  <SLURM_JOB_ID>  (40) 
211013

>  <inchikey>  (40) 
KGPMAROHLPCGEI-SNVBAGLBSA-N

$$$$
VBOACUTYNJLSJJ-UHFFFAOYSA-N
     RDKit          3D

 13 14  0  0  0  0  0  0  0  0999 V2000
  -15.0131  -41.5018  -24.1644 C   0  0  0  0  0  0  0  0  0  0  0  0
  -14.8122  -41.2289  -22.8211 C   0  0  0  0  0  0  0  0  0  0  0  0
  -15.3379  -42.0961  -21.8654 C   0  0  0  0  0  0  0  0  0  0  0  0
  -16.0814  -43.2095  -22.2644 C   0  0  0  0  0  0  0  0  0  0  0  0
  -16.6844  -44.0142  -21.2828 N   0  0  0  0  0  0  0  0  0  0  0  0
  -17.8357  -44.7796  -21.7640 C   0  0  0  0  0  0  0  0  0  0  0  0
  -18.3427  -45.8183  -20.7678 C   0  0  0  0  0  0  0  0  0  0  0  0
  -18.4838  -45.2970  -19.3520 C   0  0  0  0  0  0  0  0  0  0  0  0
  -17.2894  -45.5262  -18.6129 O   0  0  0  0  0  0  0  0  0  0  0  0
  -16.2278  -44.6265  -18.9321 C   0  0  0  0  0  0  0  0  0  0  0  0
  -15.7355  -44.7044  -20.3879 C   0  0  0  0  0  0  0  0  0  0  0  0
  -16.2978  -43.4555  -23.5740 N   0  0  0  0  0  0  0  0  0  0  0  0
  -15.7409  -42.6286  -24.4876 C   0  0  0  0  0  0  0  0  0  0  0  0
  1  2  2  0
  2  3  1  0
  3  4  2  0
  4  5  1  0
  5  6  1  0
  6  7  1  0
  7  8  1  0
  8  9  1  0
  9 10  1  0
 10 11  1  0
  4 12  1  0
 12 13  2  0
 13  1  1  0
 11  5  1  0
M  END
>  <energy_score>  (41) 
-18.649234

>  <name>  (41) 
VBOACUTYNJLSJJ-UHFFFAOYSA-N

>  <distance_score>  (41) 
0.956436

>  <original ID>  (41) 
VBOACUTYNJLSJJ-UHFFFAOYSA-N

>  <HIPPO Compound ID>  (41) 
14654

>  <exports>  (41) 
nan

>  <fragmenstein_mode>  (41) 
expansion

>  <scratch_subdir>  (41) 
/opt/xchem-fragalysis-2/maxwin/BulkDock/SCRATCH/220460/C52068-P173

>  <ref_pdb>  (41) 
d0615b

>  <ref_mols>  (41) 
d0254a,d0615b

>  <original SMILES>  (41) 
c1ccc(N2CCCOCC2)nc1

>  <alias>  (41) 
None

>  <tags>  (41) 
['DF curated INTERESTING', 'Knitwork impure merge', 'AC curated INTERESTING', 'Fragmenstein placed', 'Green Site/RNA tunnel merge']

>  <fragmenstein_outcome>  (41) 
too moved

>  <csv_name>  (41) 
RdRp_knitwork_green_site_rna_tunnel_impure_split4000_batch009.csv

>  <HIPPO Pose ID>  (41) 
52068

>  <SLURM_JOB_NAME>  (41) 
BulkDock.place:Flavi_NS5_RdRp:RdRp_knitwork_green_site_rna_tunnel_impure_split4000_batch009

>  <fragmenstein_runtime>  (41) 
2.385245

>  <fragmenstein_error>  (41) 
None

>  <SLURM_JOB_ID>  (41) 
220460

>  <inchikey>  (41) 
VBOACUTYNJLSJJ-UHFFFAOYSA-N

$$$$
SRYIZWIXZDSVQX-UHFFFAOYSA-N
     RDKit          3D

 23 26  0  0  0  0  0  0  0  0999 V2000
   -6.6425  -72.5849  -17.2996 O   0  0  0  0  0  0  0  0  0  0  0  0
   -7.3424  -72.1193  -18.1940 C   0  0  0  0  0  0  0  0  0  0  0  0
   -8.6992  -71.6729  -17.8478 C   0  0  0  0  0  0  0  0  0  0  0  0
   -9.5294  -71.2150  -18.7819 C   0  0  0  0  0  0  0  0  0  0  0  0
   -9.0433  -71.2000  -20.1832 C   0  0  0  0  0  0  0  0  0  0  0  0
  -10.0223  -70.8101  -21.2444 C   0  0  0  0  0  0  0  0  0  0  0  0
   -9.7518  -71.0954  -22.5877 C   0  0  0  0  0  0  0  0  0  0  0  0
  -10.7018  -70.8134  -23.5656 C   0  0  0  0  0  0  0  0  0  0  0  0
  -11.9082  -70.2607  -23.1715 C   0  0  0  0  0  0  0  0  0  0  0  0
  -12.2052  -69.9581  -21.8911 N   0  0  0  0  0  0  0  0  0  0  0  0
  -11.2555  -70.2309  -20.9635 C   0  0  0  0  0  0  0  0  0  0  0  0
   -7.8402  -71.5593  -20.5222 N   0  0  0  0  0  0  0  0  0  0  0  0
   -6.9811  -71.9891  -19.5208 N   0  0  0  0  0  0  0  0  0  0  0  0
   -5.6171  -72.3362  -19.9084 C   0  0  0  0  0  0  0  0  0  0  0  0
   -4.7650  -71.1172  -20.1231 C   0  0  0  0  0  0  0  0  0  0  0  0
   -5.0233  -69.9923  -19.4507 N   0  0  0  0  0  0  0  0  0  0  0  0
   -4.0255  -68.8060  -20.0024 S   0  0  0  0  0  0  0  0  0  0  0  0
   -3.1409  -69.7632  -21.1003 C   0  0  0  0  0  0  0  0  0  0  0  0
   -2.0959  -69.3935  -21.9590 C   0  0  0  0  0  0  0  0  0  0  0  0
   -1.5439  -70.3845  -22.7751 C   0  0  0  0  0  0  0  0  0  0  0  0
   -1.9901  -71.6989  -22.7134 C   0  0  0  0  0  0  0  0  0  0  0  0
   -3.0335  -72.0500  -21.8531 C   0  0  0  0  0  0  0  0  0  0  0  0
   -3.6400  -71.0650  -21.0365 C   0  0  0  0  0  0  0  0  0  0  0  0
  1  2  2  0
  2  3  1  0
  3  4  2  0
  4  5  1  0
  5  6  1  0
  6  7  2  0
  7  8  1  0
  8  9  2  0
  9 10  1  0
 10 11  2  0
  5 12  2  0
 12 13  1  0
 13 14  1  0
 14 15  1  0
 15 16  2  0
 16 17  1  0
 17 18  1  0
 18 19  2  0
 19 20  1  0
 20 21  2  0
 21 22  1  0
 22 23  2  0
 13  2  1  0
 23 15  1  0
 11  6  1  0
 23 18  1  0
M  END
>  <energy_score>  (42) 
-54.107404

>  <name>  (42) 
SRYIZWIXZDSVQX-UHFFFAOYSA-N

>  <distance_score>  (42) 
0.981398

>  <original ID>  (42) 
SRYIZWIXZDSVQX-UHFFFAOYSA-N

>  <HIPPO Compound ID>  (42) 
4745

>  <exports>  (42) 
nan

>  <fragmenstein_mode>  (42) 
expansion

>  <scratch_subdir>  (42) 
/opt/xchem-fragalysis-2/maxwin/BulkDock/SCRATCH/220452/C54989-P100

>  <ref_pdb>  (42) 
d0615a

>  <ref_mols>  (42) 
d0379a,d0615a

>  <original SMILES>  (42) 
O=c1ccc(-c2cccnc2)nn1Cc1nsc2ccccc12

>  <alias>  (42) 
None

>  <tags>  (42) 
['DF curated INTERESTING', 'Knitwork impure merge', 'AC curated INTERESTING', 'Fragmenstein placed', 'Green Site/RNA tunnel merge']

>  <fragmenstein_outcome>  (42) 
too moved

>  <csv_name>  (42) 
RdRp_knitwork_green_site_rna_tunnel_impure_split4000_batch001.csv

>  <HIPPO Pose ID>  (42) 
54989

>  <SLURM_JOB_NAME>  (42) 
BulkDock.place:Flavi_NS5_RdRp:RdRp_knitwork_green_site_rna_tunnel_impure_split4000_batch001

>  <fragmenstein_runtime>  (42) 
3.455919

>  <fragmenstein_error>  (42) 
None

>  <SLURM_JOB_ID>  (42) 
220452

>  <inchikey>  (42) 
SRYIZWIXZDSVQX-UHFFFAOYSA-N

$$$$
LMZFONDIQODLJV-OAHLLOKOSA-N
     RDKit          3D

 22 24  0  0  0  0  0  0  0  0999 V2000
  -13.0732  -68.6120  -20.3107 O   0  0  0  0  0  0  0  0  0  0  0  0
  -13.7530  -69.8800  -20.2468 S   0  0  0  0  0  0  0  0  0  0  0  0
  -14.2359  -70.4142  -18.9876 O   0  0  0  0  0  0  0  0  0  0  0  0
  -15.1333  -69.8413  -21.3905 C   0  0  0  0  0  0  0  0  0  0  0  0
  -14.6822  -69.9589  -22.8346 C   0  0  0  0  0  0  0  0  0  0  0  0
  -15.7652  -69.9882  -23.8512 C   0  0  0  0  0  0  0  0  0  0  0  0
  -17.1525  -69.8164  -23.7014 C   0  0  0  0  0  0  0  0  0  0  0  0
  -17.7905  -69.7564  -24.8704 N   0  0  0  0  0  0  0  0  0  0  0  0
  -16.8283  -70.0602  -25.8197 O   0  0  0  0  0  0  0  0  0  0  0  0
  -15.6294  -70.2111  -25.2034 C   0  0  0  0  0  0  0  0  0  0  0  0
  -12.7753  -71.0670  -20.9062 N   0  0  0  0  0  0  0  0  0  0  0  0
  -11.3970  -70.7276  -21.3334 C   0  0  1  0  0  0  0  0  0  0  0  0
  -10.3401  -71.0161  -20.2729 C   0  0  0  0  0  0  0  0  0  0  0  0
  -10.5102  -71.9604  -19.2542 C   0  0  0  0  0  0  0  0  0  0  0  0
   -9.4600  -72.2089  -18.3796 C   0  0  0  0  0  0  0  0  0  0  0  0
   -8.2569  -71.6063  -18.4517 N   0  0  0  0  0  0  0  0  0  0  0  0
   -8.0985  -70.7067  -19.4419 C   0  0  0  0  0  0  0  0  0  0  0  0
   -9.0986  -70.3651  -20.3395 C   0  0  0  0  0  0  0  0  0  0  0  0
  -11.0429  -71.5229  -22.6032 C   0  0  0  0  0  0  0  0  0  0  0  0
  -11.7262  -71.1281  -23.9484 C   0  0  0  0  0  0  0  0  0  0  0  0
  -10.3997  -71.4531  -24.6533 C   0  0  0  0  0  0  0  0  0  0  0  0
   -9.7077  -71.1620  -23.3183 C   0  0  0  0  0  0  0  0  0  0  0  0
  1  2  2  0
  2  3  2  0
  2  4  1  0
  4  5  1  0
  5  6  1  0
  6  7  1  0
  7  8  2  0
  8  9  1  0
  9 10  1  0
  2 11  1  0
 12 11  1  1
 12 13  1  0
 13 14  2  0
 14 15  1  0
 15 16  2  0
 16 17  1  0
 17 18  2  0
 12 19  1  0
 19 20  1  0
 20 21  1  0
 21 22  1  0
 10  6  2  0
 18 13  1  0
 22 19  1  0
M  END
>  <energy_score>  (43) 
-65.442873

>  <name>  (43) 
LMZFONDIQODLJV-OAHLLOKOSA-N

>  <distance_score>  (43) 
0.792769

>  <original ID>  (43) 
LMZFONDIQODLJV-OAHLLOKOSA-N

>  <HIPPO Compound ID>  (43) 
1453

>  <exports>  (43) 
['/opt/xchem-fragalysis-2/maxwin/BulkDock/OUTPUTS/RdRp_knitwork_thumb_site_2_impure_split4000_batch000_211013.sdf', '/opt/xchem-fragalysis-2/maxwin/BulkDock/OUTPUTS/RdRp_knitwork_thumb_site_2_impure_fragalysis.sdf']

>  <fragmenstein_mode>  (43) 
['expansion']

>  <scratch_subdir>  (43) 
['/opt/xchem-fragalysis-2/maxwin/BulkDock/SCRATCH/211013/C1453-P50']

>  <ref_pdb>  (43) 
d0615a

>  <ref_mols>  (43) 
d0174a,d0615a

>  <original SMILES>  (43) 
O=S(=O)(CCc1cnoc1)N[C@@H](c1ccncc1)C1CCC1

>  <alias>  (43) 
None

>  <tags>  (43) 
['DF curated INTERESTING', 'Thumb Site 2 merge', 'Knitwork impure merge', 'AC curated INTERESTING', 'Fragmenstein placed', 'acceptable']

>  <fragmenstein_outcome>  (43) 
['acceptable']

>  <csv_name>  (43) 
RdRp_knitwork_thumb_site_2_impure_split4000_batch000.csv

>  <HIPPO Pose ID>  (43) 
55030

>  <SLURM_JOB_NAME>  (43) 
BulkDock.place:Flavi_NS5_RdRp:RdRp_knitwork_thumb_site_2_impure_split4000_batch000

>  <fragmenstein_runtime>  (43) 
[5.452700853347778]

>  <fragmenstein_error>  (43) 
['']

>  <SLURM_JOB_ID>  (43) 
211013

>  <inchikey>  (43) 
LMZFONDIQODLJV-OAHLLOKOSA-N

$$$$
QXPKZAYBHAOLKZ-AWEZNQCLSA-N
     RDKit          3D

 21 23  0  0  0  0  0  0  0  0999 V2000
  -12.6058  -68.8107  -20.1157 O   0  0  0  0  0  0  0  0  0  0  0  0
  -13.6003  -69.8223  -20.3660 S   0  0  0  0  0  0  0  0  0  0  0  0
  -14.5465  -70.1834  -19.3272 O   0  0  0  0  0  0  0  0  0  0  0  0
  -14.5073  -69.3947  -21.8589 C   0  0  0  0  0  0  0  0  0  0  0  0
  -15.1497  -70.6075  -22.5050 C   0  0  0  0  0  0  0  0  0  0  0  0
  -15.8794  -70.3067  -23.7630 C   0  0  0  0  0  0  0  0  0  0  0  0
  -17.2452  -69.9972  -23.9250 C   0  0  0  0  0  0  0  0  0  0  0  0
  -17.5640  -69.7278  -25.1912 N   0  0  0  0  0  0  0  0  0  0  0  0
  -16.4101  -69.9836  -25.9130 O   0  0  0  0  0  0  0  0  0  0  0  0
  -15.4121  -70.3190  -25.0566 C   0  0  0  0  0  0  0  0  0  0  0  0
  -12.8432  -71.2482  -20.7489 N   0  0  0  0  0  0  0  0  0  0  0  0
  -11.4923  -71.3566  -21.3168 C   0  0  2  0  0  0  0  0  0  0  0  0
  -10.3741  -71.2849  -20.2924 C   0  0  0  0  0  0  0  0  0  0  0  0
  -10.4544  -72.0275  -19.1037 C   0  0  0  0  0  0  0  0  0  0  0  0
   -9.3693  -72.0897  -18.2322 C   0  0  0  0  0  0  0  0  0  0  0  0
   -8.2157  -71.4124  -18.5760 C   0  0  0  0  0  0  0  0  0  0  0  0
   -8.0946  -70.6716  -19.6930 N   0  0  0  0  0  0  0  0  0  0  0  0
   -9.1706  -70.6166  -20.5154 C   0  0  0  0  0  0  0  0  0  0  0  0
  -11.2991  -70.4705  -22.5136 C   0  0  0  0  0  0  0  0  0  0  0  0
  -10.2926  -70.8363  -23.5862 C   0  0  0  0  0  0  0  0  0  0  0  0
  -11.7543  -70.8643  -23.9001 C   0  0  0  0  0  0  0  0  0  0  0  0
  1  2  2  0
  2  3  2  0
  2  4  1  0
  4  5  1  0
  5  6  1  0
  6  7  1  0
  7  8  2  0
  8  9  1  0
  9 10  1  0
  2 11  1  0
 12 11  1  1
 12 13  1  0
 13 14  2  0
 14 15  1  0
 15 16  2  0
 16 17  1  0
 17 18  2  0
 12 19  1  0
 19 20  1  0
 20 21  1  0
 10  6  2  0
 18 13  1  0
 21 19  1  0
M  END
>  <energy_score>  (44) 
-83.763917

>  <name>  (44) 
QXPKZAYBHAOLKZ-AWEZNQCLSA-N

>  <distance_score>  (44) 
0.828643

>  <original ID>  (44) 
QXPKZAYBHAOLKZ-AWEZNQCLSA-N

>  <HIPPO Compound ID>  (44) 
1504

>  <exports>  (44) 
['/opt/xchem-fragalysis-2/maxwin/BulkDock/OUTPUTS/RdRp_knitwork_thumb_site_2_impure_split4000_batch000_211013.sdf', '/opt/xchem-fragalysis-2/maxwin/BulkDock/OUTPUTS/RdRp_knitwork_thumb_site_2_impure_fragalysis.sdf']

>  <fragmenstein_mode>  (44) 
['expansion']

>  <scratch_subdir>  (44) 
['/opt/xchem-fragalysis-2/maxwin/BulkDock/SCRATCH/211013/C1504-P17']

>  <ref_pdb>  (44) 
d0174a

>  <ref_mols>  (44) 
d0174a,d0615a

>  <original SMILES>  (44) 
O=S(=O)(CCc1cnoc1)N[C@H](c1cccnc1)C1CC1

>  <alias>  (44) 
None

>  <tags>  (44) 
['DF curated INTERESTING', 'Thumb Site 2 merge', 'Knitwork impure merge', 'AC curated INTERESTING', 'Fragmenstein placed', 'acceptable']

>  <fragmenstein_outcome>  (44) 
['acceptable']

>  <csv_name>  (44) 
RdRp_knitwork_thumb_site_2_impure_split4000_batch000.csv

>  <HIPPO Pose ID>  (44) 
55056

>  <SLURM_JOB_NAME>  (44) 
BulkDock.place:Flavi_NS5_RdRp:RdRp_knitwork_thumb_site_2_impure_split4000_batch000

>  <fragmenstein_runtime>  (44) 
[6.390786409378052]

>  <fragmenstein_error>  (44) 
['']

>  <SLURM_JOB_ID>  (44) 
211013

>  <inchikey>  (44) 
QXPKZAYBHAOLKZ-AWEZNQCLSA-N

$$$$
HLHAOIDDWWBQNL-KRWDZBQOSA-N
     RDKit          3D

 24 26  0  0  0  0  0  0  0  0999 V2000
  -12.8958  -68.4726  -19.9384 O   0  0  0  0  0  0  0  0  0  0  0  0
  -13.7777  -69.5614  -20.2669 S   0  0  0  0  0  0  0  0  0  0  0  0
  -14.7373  -70.0478  -19.2983 O   0  0  0  0  0  0  0  0  0  0  0  0
  -14.5920  -69.1984  -21.8181 C   0  0  0  0  0  0  0  0  0  0  0  0
  -15.3911  -70.3790  -22.3262 C   0  0  0  0  0  0  0  0  0  0  0  0
  -15.7876  -70.2599  -23.7503 C   0  0  0  0  0  0  0  0  0  0  0  0
  -17.0694  -70.0271  -24.2926 C   0  0  0  0  0  0  0  0  0  0  0  0
  -17.0505  -69.9687  -25.6244 N   0  0  0  0  0  0  0  0  0  0  0  0
  -15.7398  -70.2275  -25.9852 O   0  0  0  0  0  0  0  0  0  0  0  0
  -14.9936  -70.3946  -24.8663 C   0  0  0  0  0  0  0  0  0  0  0  0
  -12.8368  -70.8810  -20.6413 N   0  0  0  0  0  0  0  0  0  0  0  0
  -11.5202  -70.6568  -21.2628 C   0  0  1  0  0  0  0  0  0  0  0  0
  -10.3617  -71.0661  -20.3623 C   0  0  0  0  0  0  0  0  0  0  0  0
  -10.4023  -72.2002  -19.5347 C   0  0  0  0  0  0  0  0  0  0  0  0
   -9.2916  -72.5706  -18.7707 C   0  0  0  0  0  0  0  0  0  0  0  0
   -8.1105  -71.8398  -18.8495 C   0  0  0  0  0  0  0  0  0  0  0  0
   -8.0455  -70.7259  -19.6772 C   0  0  0  0  0  0  0  0  0  0  0  0
   -9.1626  -70.3350  -20.4158 C   0  0  0  0  0  0  0  0  0  0  0  0
  -11.4104  -71.2820  -22.6402 C   0  0  0  0  0  0  0  0  0  0  0  0
  -10.4929  -70.7876  -23.5782 C   0  0  0  0  0  0  0  0  0  0  0  0
  -10.4172  -71.3437  -24.8496 C   0  0  0  0  0  0  0  0  0  0  0  0
  -11.2570  -72.4008  -25.1490 C   0  0  0  0  0  0  0  0  0  0  0  0
  -12.1406  -72.9253  -24.2718 N   0  0  0  0  0  0  0  0  0  0  0  0
  -12.1783  -72.3712  -23.0376 C   0  0  0  0  0  0  0  0  0  0  0  0
  1  2  2  0
  2  3  2  0
  2  4  1  0
  4  5  1  0
  5  6  1  0
  6  7  1  0
  7  8  2  0
  8  9  1  0
  9 10  1  0
  2 11  1  0
 12 11  1  1
 12 13  1  0
 13 14  2  0
 14 15  1  0
 15 16  2  0
 16 17  1  0
 17 18  2  0
 12 19  1  0
 19 20  2  0
 20 21  1  0
 21 22  2  0
 22 23  1  0
 23 24  2  0
 10  6  2  0
 18 13  1  0
 24 19  1  0
M  END
>  <energy_score>  (45) 
-37.486879

>  <name>  (45) 
HLHAOIDDWWBQNL-KRWDZBQOSA-N

>  <distance_score>  (45) 
0.80666

>  <original ID>  (45) 
HLHAOIDDWWBQNL-KRWDZBQOSA-N

>  <HIPPO Compound ID>  (45) 
1548

>  <exports>  (45) 
['/opt/xchem-fragalysis-2/maxwin/BulkDock/OUTPUTS/RdRp_knitwork_thumb_site_2_impure_split4000_batch000_211013.sdf', '/opt/xchem-fragalysis-2/maxwin/BulkDock/OUTPUTS/RdRp_knitwork_thumb_site_2_impure_fragalysis.sdf']

>  <fragmenstein_mode>  (45) 
['expansion']

>  <scratch_subdir>  (45) 
['/opt/xchem-fragalysis-2/maxwin/BulkDock/SCRATCH/211013/C1548-P17']

>  <ref_pdb>  (45) 
d0174a

>  <ref_mols>  (45) 
d0174a,d0615a

>  <original SMILES>  (45) 
O=S(=O)(CCc1cnoc1)N[C@@H](c1ccccc1)c1cccnc1

>  <alias>  (45) 
None

>  <tags>  (45) 
['DF curated INTERESTING', 'Thumb Site 2 merge', 'Knitwork impure merge', 'AC curated INTERESTING', 'Fragmenstein placed', 'acceptable']

>  <fragmenstein_outcome>  (45) 
['acceptable']

>  <csv_name>  (45) 
RdRp_knitwork_thumb_site_2_impure_split4000_batch000.csv

>  <HIPPO Pose ID>  (45) 
55058

>  <SLURM_JOB_NAME>  (45) 
BulkDock.place:Flavi_NS5_RdRp:RdRp_knitwork_thumb_site_2_impure_split4000_batch000

>  <fragmenstein_runtime>  (45) 
[5.372358798980713]

>  <fragmenstein_error>  (45) 
['']

>  <SLURM_JOB_ID>  (45) 
211013

>  <inchikey>  (45) 
HLHAOIDDWWBQNL-KRWDZBQOSA-N

$$$$
HLHAOIDDWWBQNL-KRWDZBQOSA-N
     RDKit          3D

 24 26  0  0  0  0  0  0  0  0999 V2000
  -12.7162  -68.6130  -19.8352 O   0  0  0  0  0  0  0  0  0  0  0  0
  -13.7143  -69.5879  -20.1903 S   0  0  0  0  0  0  0  0  0  0  0  0
  -14.5406  -70.2073  -19.1743 O   0  0  0  0  0  0  0  0  0  0  0  0
  -14.7724  -68.8574  -21.4303 C   0  0  0  0  0  0  0  0  0  0  0  0
  -15.4510  -69.8526  -22.3437 C   0  0  0  0  0  0  0  0  0  0  0  0
  -14.8634  -70.0314  -23.6999 C   0  0  0  0  0  0  0  0  0  0  0  0
  -15.3917  -70.8488  -24.7248 C   0  0  0  0  0  0  0  0  0  0  0  0
  -14.6796  -70.7963  -25.8490 N   0  0  0  0  0  0  0  0  0  0  0  0
  -13.6415  -69.9226  -25.5751 O   0  0  0  0  0  0  0  0  0  0  0  0
  -13.7644  -69.4642  -24.3031 C   0  0  0  0  0  0  0  0  0  0  0  0
  -12.9609  -70.8510  -20.9573 N   0  0  0  0  0  0  0  0  0  0  0  0
  -11.5906  -70.6485  -21.4670 C   0  0  1  0  0  0  0  0  0  0  0  0
  -10.4964  -70.9576  -20.4472 C   0  0  0  0  0  0  0  0  0  0  0  0
  -10.6183  -71.9673  -19.4781 C   0  0  0  0  0  0  0  0  0  0  0  0
   -9.5474  -72.2894  -18.6370 C   0  0  0  0  0  0  0  0  0  0  0  0
   -8.3307  -71.6261  -18.7633 C   0  0  0  0  0  0  0  0  0  0  0  0
   -8.1921  -70.6202  -19.7115 C   0  0  0  0  0  0  0  0  0  0  0  0
   -9.2662  -70.2806  -20.5355 C   0  0  0  0  0  0  0  0  0  0  0  0
  -11.3509  -71.4108  -22.7594 C   0  0  0  0  0  0  0  0  0  0  0  0
  -10.4053  -70.9643  -23.6935 C   0  0  0  0  0  0  0  0  0  0  0  0
  -10.2109  -71.6583  -24.8816 C   0  0  0  0  0  0  0  0  0  0  0  0
  -10.9539  -72.8056  -25.0979 C   0  0  0  0  0  0  0  0  0  0  0  0
  -11.8481  -73.2970  -24.2137 N   0  0  0  0  0  0  0  0  0  0  0  0
  -12.0210  -72.5913  -23.0724 C   0  0  0  0  0  0  0  0  0  0  0  0
  1  2  2  0
  2  3  2  0
  2  4  1  0
  4  5  1  0
  5  6  1  0
  6  7  1  0
  7  8  2  0
  8  9  1  0
  9 10  1  0
  2 11  1  0
 12 11  1  1
 12 13  1  0
 13 14  2  0
 14 15  1  0
 15 16  2  0
 16 17  1  0
 17 18  2  0
 12 19  1  0
 19 20  2  0
 20 21  1  0
 21 22  2  0
 22 23  1  0
 23 24  2  0
 10  6  2  0
 18 13  1  0
 24 19  1  0
M  END
>  <energy_score>  (46) 
-30.580906

>  <name>  (46) 
HLHAOIDDWWBQNL-KRWDZBQOSA-N

>  <distance_score>  (46) 
0.814399

>  <original ID>  (46) 
HLHAOIDDWWBQNL-KRWDZBQOSA-N

>  <HIPPO Compound ID>  (46) 
1548

>  <exports>  (46) 
nan

>  <fragmenstein_mode>  (46) 
expansion

>  <scratch_subdir>  (46) 
/opt/xchem-fragalysis-2/maxwin/BulkDock/SCRATCH/217075/C55059-P208

>  <ref_pdb>  (46) 
d0615a

>  <ref_mols>  (46) 
d0174a,d0615a

>  <original SMILES>  (46) 
O=S(=O)(CCc1cnoc1)N[C@@H](c1ccccc1)c1cccnc1

>  <alias>  (46) 
None

>  <tags>  (46) 
['DF curated INTERESTING', 'Knitwork pure merge', 'Fragmenstein placed', 'Green Site/RNA tunnel merge']

>  <fragmenstein_outcome>  (46) 
too moved

>  <csv_name>  (46) 
RdRp_knitwork_green_site_rna_tunnel_pure_split4000_batch004.csv

>  <HIPPO Pose ID>  (46) 
55059

>  <SLURM_JOB_NAME>  (46) 
BulkDock.place:Flavi_NS5_RdRp:RdRp_knitwork_green_site_rna_tunnel_pure_split4000_batch004

>  <fragmenstein_runtime>  (46) 
3.762269

>  <fragmenstein_error>  (46) 
None

>  <SLURM_JOB_ID>  (46) 
217075

>  <inchikey>  (46) 
HLHAOIDDWWBQNL-KRWDZBQOSA-N

$$$$
AJQQGJNKKDEODG-UHFFFAOYSA-N
     RDKit          3D

 11 12  0  0  0  0  0  0  0  0999 V2000
  -15.3054  -44.7297  -21.1642 C   0  0  0  0  0  0  0  0  0  0  0  0
  -14.5560  -43.6147  -21.5105 C   0  0  0  0  0  0  0  0  0  0  0  0
  -13.7686  -43.0043  -20.5330 C   0  0  0  0  0  0  0  0  0  0  0  0
  -13.0322  -41.7773  -20.8209 C   0  0  0  0  0  0  0  0  0  0  0  0
  -13.3224  -40.7019  -21.6423 C   0  0  0  0  0  0  0  0  0  0  0  0
  -12.3431  -39.7413  -21.5814 N   0  0  0  0  0  0  0  0  0  0  0  0
  -11.4766  -40.1978  -20.7086 C   0  0  0  0  0  0  0  0  0  0  0  0
  -11.8175  -41.4437  -20.2632 N   0  0  0  0  0  0  0  0  0  0  0  0
  -13.7697  -43.5516  -19.2490 C   0  0  0  0  0  0  0  0  0  0  0  0
  -14.5574  -44.6652  -18.9993 C   0  0  0  0  0  0  0  0  0  0  0  0
  -15.3133  -45.2828  -19.9305 N   0  0  0  0  0  0  0  0  0  0  0  0
  1  2  2  0
  2  3  1  0
  3  4  1  0
  4  5  2  0
  5  6  1  0
  6  7  2  0
  7  8  1  0
  3  9  2  0
  9 10  1  0
 10 11  2  0
 11  1  1  0
  8  4  1  0
M  END
>  <energy_score>  (47) 
-11.85689

>  <name>  (47) 
AJQQGJNKKDEODG-UHFFFAOYSA-N

>  <distance_score>  (47) 
0.859558

>  <original ID>  (47) 
AJQQGJNKKDEODG-UHFFFAOYSA-N

>  <HIPPO Compound ID>  (47) 
8715

>  <exports>  (47) 
['/opt/xchem-fragalysis-2/maxwin/BulkDock/OUTPUTS/RdRp_knitwork_primer_grip_n_pocket_impure_split4000_batch000_211032.sdf', '/opt/xchem-fragalysis-2/maxwin/BulkDock/OUTPUTS/RdRp_knitwork_primer_grip_n_pocket_impure_fragalysis.sdf']

>  <fragmenstein_mode>  (47) 
['expansion']

>  <scratch_subdir>  (47) 
['/opt/xchem-fragalysis-2/maxwin/BulkDock/SCRATCH/211032/C8715-P42']

>  <ref_pdb>  (47) 
d0472a

>  <ref_mols>  (47) 
d0472a,z0875c

>  <original SMILES>  (47) 
c1cc(-c2cnc[nH]2)ccn1

>  <alias>  (47) 
None

>  <tags>  (47) 
['Primer grip/N-pocket merge', 'Knitwork impure merge', 'DF curated YES', 'AC curated YES', 'Fragmenstein placed', 'acceptable']

>  <fragmenstein_outcome>  (47) 
['acceptable']

>  <csv_name>  (47) 
RdRp_knitwork_primer_grip_n_pocket_impure_split4000_batch000.csv

>  <HIPPO Pose ID>  (47) 
55140

>  <SLURM_JOB_NAME>  (47) 
BulkDock.place:Flavi_NS5_RdRp:RdRp_knitwork_primer_grip_n_pocket_impure_split4000_batch000

>  <fragmenstein_runtime>  (47) 
[1.4302153587341309]

>  <fragmenstein_error>  (47) 
['']

>  <SLURM_JOB_ID>  (47) 
211032

>  <inchikey>  (47) 
AJQQGJNKKDEODG-UHFFFAOYSA-N

$$$$
CZPICAMLPOGNFV-UHFFFAOYSA-N
     RDKit          3D

 17 18  0  0  0  0  0  0  0  0999 V2000
  -23.1701  -55.3238   -0.4674 C   0  0  0  0  0  0  0  0  0  0  0  0
  -23.4631  -56.6029    0.0893 O   0  0  0  0  0  0  0  0  0  0  0  0
  -24.2822  -57.3733   -0.6970 C   0  0  0  0  0  0  0  0  0  0  0  0
  -25.2083  -56.8006   -1.5620 C   0  0  0  0  0  0  0  0  0  0  0  0
  -25.9050  -57.5917   -2.4557 C   0  0  0  0  0  0  0  0  0  0  0  0
  -25.7165  -58.9775   -2.4354 C   0  0  0  0  0  0  0  0  0  0  0  0
  -26.2976  -60.0152   -3.1859 C   0  0  0  0  0  0  0  0  0  0  0  0
  -25.6660  -61.1828   -2.8362 C   0  0  0  0  0  0  0  0  0  0  0  0
  -25.7850  -62.5133   -3.4512 C   0  0  0  0  0  0  0  0  0  0  0  0
  -27.1742  -62.7088   -3.7974 N   0  0  0  0  0  0  0  0  0  0  0  0
  -24.8438  -60.9065   -1.7744 N   0  0  0  0  0  0  0  0  0  0  0  0
  -24.8357  -59.5508   -1.5200 C   0  0  0  0  0  0  0  0  0  0  0  0
  -24.1134  -58.7707   -0.6098 C   0  0  0  0  0  0  0  0  0  0  0  0
  -23.1977  -59.2701    0.3145 N   0  0  0  0  0  0  0  0  0  0  0  0
  -22.6788  -60.7200    0.5407 C   0  0  0  0  0  0  0  0  0  0  0  0
  -21.6093  -60.6189    1.6050 C   0  0  0  0  0  0  0  0  0  0  0  0
  -22.9982  -61.7262    0.0373 O   0  0  0  0  0  0  0  0  0  0  0  0
  1  2  1  0
  2  3  1  0
  3  4  2  0
  4  5  1  0
  5  6  2  0
  6  7  1  0
  7  8  2  0
  8  9  1  0
  9 10  1  0
  8 11  1  0
 11 12  1  0
 12 13  2  0
 13 14  1  0
 14 15  1  0
 15 16  1  0
 15 17  2  0
 13  3  1  0
 12  6  1  0
M  END
>  <energy_score>  (48) 
-35.134158

>  <name>  (48) 
CZPICAMLPOGNFV-UHFFFAOYSA-N

>  <distance_score>  (48) 
0.88802

>  <original ID>  (48) 
CZPICAMLPOGNFV-UHFFFAOYSA-N

>  <HIPPO Compound ID>  (48) 
66289

>  <exports>  (48) 
['/opt/xchem-fragalysis-2/maxwin/BulkDock/OUTPUTS/RdRp_fstein_cavity_b_split1000_batch000_216971.sdf', '/opt/xchem-fragalysis-2/maxwin/BulkDock/OUTPUTS/RdRp_fstein_cavity_b_split1000_batch000_216971_fragalysis.sdf']

>  <fragmenstein_mode>  (48) 
expansion

>  <scratch_subdir>  (48) 
/opt/xchem-fragalysis-2/maxwin/BulkDock/SCRATCH/216971/C66289-P96

>  <ref_pdb>  (48) 
z0184a

>  <ref_mols>  (48) 
z0136b,z0184a

>  <original SMILES>  (48) 
COc1ccc2cc(CN)[nH]c2c1NC(C)=O

>  <alias>  (48) 
None

>  <tags>  (48) 
['Fragmenstein pure merge', 'DF curated YES', 'Cavity B merge', 'Fragmenstein placed', 'acceptable']

>  <fragmenstein_outcome>  (48) 
acceptable

>  <csv_name>  (48) 
RdRp_fstein_cavity_b_split1000_batch000.csv

>  <HIPPO Pose ID>  (48) 
55394

>  <SLURM_JOB_NAME>  (48) 
BulkDock.place:Flavi_NS5_RdRp:RdRp_fstein_cavity_b_split1000_batch000

>  <fragmenstein_runtime>  (48) 
2.294948

>  <fragmenstein_error>  (48) 
None

>  <SLURM_JOB_ID>  (48) 
216971

>  <inchikey>  (48) 
CZPICAMLPOGNFV-UHFFFAOYSA-N

$$$$
VWAMYSBDXCFQCU-JTQLQIEISA-N
     RDKit          3D

 21 23  0  0  0  0  0  0  0  0999 V2000
  -18.4350  -44.2407  -23.1681 C   0  0  0  0  0  0  0  0  0  0  0  0
  -17.6867  -44.9969  -22.0725 C   0  0  1  0  0  0  0  0  0  0  0  0
  -16.2372  -44.5796  -21.7552 C   0  0  0  0  0  0  0  0  0  0  0  0
  -15.6177  -43.5945  -22.7358 C   0  0  0  0  0  0  0  0  0  0  0  0
  -15.5434  -43.8152  -23.8815 O   0  0  0  0  0  0  0  0  0  0  0  0
  -15.1596  -42.3509  -21.9153 N   0  0  0  0  0  0  0  0  0  0  0  0
  -14.6326  -41.1536  -22.3314 C   0  0  0  0  0  0  0  0  0  0  0  0
  -13.8517  -40.4199  -21.4656 C   0  0  0  0  0  0  0  0  0  0  0  0
  -13.3461  -39.3873  -22.1877 N   0  0  0  0  0  0  0  0  0  0  0  0
  -13.7985  -39.3396  -23.4402 N   0  0  0  0  0  0  0  0  0  0  0  0
  -14.6326  -40.3969  -23.5450 C   0  0  0  0  0  0  0  0  0  0  0  0
  -15.5374  -40.5625  -24.8534 C   0  0  0  0  0  0  0  0  0  0  0  0
  -15.2849  -39.9215  -25.9802 N   0  0  0  0  0  0  0  0  0  0  0  0
  -16.2280  -40.2366  -26.9363 C   0  0  0  0  0  0  0  0  0  0  0  0
  -17.2532  -41.0445  -26.5069 C   0  0  0  0  0  0  0  0  0  0  0  0
  -17.0181  -41.4316  -24.8679 S   0  0  0  0  0  0  0  0  0  0  0  0
  -18.4659  -44.9966  -20.8245 N   0  0  0  0  0  0  0  0  0  0  0  0
  -19.1031  -43.9257  -20.2496 C   0  0  0  0  0  0  0  0  0  0  0  0
  -19.6570  -44.3488  -19.0601 C   0  0  0  0  0  0  0  0  0  0  0  0
  -19.3193  -45.7111  -18.8993 C   0  0  0  0  0  0  0  0  0  0  0  0
  -18.5683  -46.0770  -19.9931 C   0  0  0  0  0  0  0  0  0  0  0  0
  2  1  1  6
  2  3  1  0
  3  4  1  0
  4  5  2  0
  4  6  1  0
  6  7  1  0
  7  8  2  0
  8  9  1  0
  9 10  1  0
 10 11  2  0
 11 12  1  0
 12 13  2  0
 13 14  1  0
 14 15  2  0
 15 16  1  0
  2 17  1  0
 17 18  1  0
 18 19  2  0
 19 20  1  0
 20 21  2  0
 11  7  1  0
 16 12  1  0
 21 17  1  0
M  END
>  <energy_score>  (49) 
-54.400173

>  <name>  (49) 
VWAMYSBDXCFQCU-JTQLQIEISA-N

>  <distance_score>  (49) 
0.750104

>  <original ID>  (49) 
VWAMYSBDXCFQCU-JTQLQIEISA-N

>  <HIPPO Compound ID>  (49) 
20751

>  <exports>  (49) 
['/opt/xchem-fragalysis-2/maxwin/BulkDock/OUTPUTS/RdRp_knitwork_primer_grip_n_pocket_pure_split1800_batch013_217047.sdf', '/opt/xchem-fragalysis-2/maxwin/BulkDock/OUTPUTS/RdRp_knitwork_primer_grip_n_pocket_pure_fragalysis.sdf']

>  <fragmenstein_mode>  (49) 
expansion

>  <scratch_subdir>  (49) 
/opt/xchem-fragalysis-2/maxwin/BulkDock/SCRATCH/217047/C20751-P12

>  <ref_pdb>  (49) 
d0160a

>  <ref_mols>  (49) 
d0160a,d0264a

>  <original SMILES>  (49) 
C[C@@H](CC(=O)Nc1c[nH]nc1-c1nccs1)n1cccc1

>  <alias>  (49) 
None

>  <tags>  (49) 
['DF curated INTERESTING', 'Primer grip/N-pocket merge', 'Knitwork pure merge', 'Fragmenstein placed', 'acceptable']

>  <fragmenstein_outcome>  (49) 
acceptable

>  <csv_name>  (49) 
RdRp_knitwork_primer_grip_n_pocket_pure_split1800_batch013.csv

>  <HIPPO Pose ID>  (49) 
55812

>  <SLURM_JOB_NAME>  (49) 
BulkDock.place:Flavi_NS5_RdRp:RdRp_knitwork_primer_grip_n_pocket_pure_split1800_batch013

>  <fragmenstein_runtime>  (49) 
8.727745

>  <fragmenstein_error>  (49) 
None

>  <SLURM_JOB_ID>  (49) 
217047

>  <inchikey>  (49) 
VWAMYSBDXCFQCU-JTQLQIEISA-N

$$$$
NGTMRIIMIQXHAF-MRVPVSSYSA-N
     RDKit          3D

 17 19  0  0  0  0  0  0  0  0999 V2000
  -13.4686  -38.6271  -22.0845 C   0  0  0  0  0  0  0  0  0  0  0  0
  -12.9450  -39.8186  -21.4616 N   0  0  0  0  0  0  0  0  0  0  0  0
  -11.8031  -39.8629  -20.7145 C   0  0  0  0  0  0  0  0  0  0  0  0
  -11.5614  -41.0765  -20.2816 N   0  0  0  0  0  0  0  0  0  0  0  0
  -12.5941  -41.8478  -20.7563 C   0  0  0  0  0  0  0  0  0  0  0  0
  -13.4638  -41.0921  -21.5101 C   0  0  0  0  0  0  0  0  0  0  0  0
  -14.5900  -41.4952  -22.2769 C   0  0  0  0  0  0  0  0  0  0  0  0
  -14.9734  -42.7394  -22.4910 N   0  0  0  0  0  0  0  0  0  0  0  0
  -15.8949  -42.6993  -23.5261 N   0  0  0  0  0  0  0  0  0  0  0  0
  -16.0326  -41.4296  -23.8384 C   0  0  0  0  0  0  0  0  0  0  0  0
  -16.6411  -40.7579  -25.0302 C   0  0  1  0  0  0  0  0  0  0  0  0
  -17.7180  -39.7495  -24.5678 C   0  0  0  0  0  0  0  0  0  0  0  0
  -17.8401  -38.5226  -25.4728 C   0  0  0  0  0  0  0  0  0  0  0  0
  -17.4576  -38.8799  -26.8964 C   0  0  0  0  0  0  0  0  0  0  0  0
  -16.0195  -39.3778  -26.9680 C   0  0  0  0  0  0  0  0  0  0  0  0
  -15.5672  -40.0874  -25.7802 N   0  0  0  0  0  0  0  0  0  0  0  0
  -15.3250  -40.6092  -23.0090 O   0  0  0  0  0  0  0  0  0  0  0  0
  1  2  1  0
  2  3  1  0
  3  4  2  0
  4  5  1  0
  5  6  2  0
  6  7  1  0
  7  8  2  0
  8  9  1  0
  9 10  2  0
 11 10  1  1
 11 12  1  0
 12 13  1  0
 13 14  1  0
 14 15  1  0
 15 16  1  0
 10 17  1  0
  6  2  1  0
 17  7  1  0
 16 11  1  0
M  END
>  <energy_score>  (50) 
-30.987692

>  <name>  (50) 
NGTMRIIMIQXHAF-MRVPVSSYSA-N

>  <distance_score>  (50) 
0.950465

>  <original ID>  (50) 
NGTMRIIMIQXHAF-MRVPVSSYSA-N

>  <HIPPO Compound ID>  (50) 
13407

>  <exports>  (50) 
['/opt/xchem-fragalysis-2/maxwin/BulkDock/OUTPUTS/RdRp_knitwork_primer_grip_n_pocket_pure_split1800_batch009_217043.sdf', '/opt/xchem-fragalysis-2/maxwin/BulkDock/OUTPUTS/RdRp_knitwork_primer_grip_n_pocket_pure_fragalysis.sdf']

>  <fragmenstein_mode>  (50) 
expansion

>  <scratch_subdir>  (50) 
/opt/xchem-fragalysis-2/maxwin/BulkDock/SCRATCH/217043/C13407-P68

>  <ref_pdb>  (50) 
d0866a

>  <ref_mols>  (50) 
d0866a,z0875c

>  <original SMILES>  (50) 
Cn1cncc1-c1nnc([C@H]2CCCCN2)o1

>  <alias>  (50) 
None

>  <tags>  (50) 
['DF curated INTERESTING', 'Primer grip/N-pocket merge', 'Knitwork pure merge', 'Fragmenstein placed', 'acceptable']

>  <fragmenstein_outcome>  (50) 
acceptable

>  <csv_name>  (50) 
RdRp_knitwork_primer_grip_n_pocket_pure_split1800_batch009.csv

>  <HIPPO Pose ID>  (50) 
59532

>  <SLURM_JOB_NAME>  (50) 
BulkDock.place:Flavi_NS5_RdRp:RdRp_knitwork_primer_grip_n_pocket_pure_split1800_batch009

>  <fragmenstein_runtime>  (50) 
5.680504

>  <fragmenstein_error>  (50) 
None

>  <SLURM_JOB_ID>  (50) 
217043

>  <inchikey>  (50) 
NGTMRIIMIQXHAF-MRVPVSSYSA-N

$$$$
QAXRUQAZQORQFQ-VIFPVBQESA-N
     RDKit          3D

 22 24  0  0  0  0  0  0  0  0999 V2000
  -14.4375  -39.1913  -23.3277 C   0  0  0  0  0  0  0  0  0  0  0  0
  -13.8586  -38.7764  -21.9803 C   0  0  1  0  0  0  0  0  0  0  0  0
  -12.8137  -39.7389  -21.3957 C   0  0  0  0  0  0  0  0  0  0  0  0
  -13.3525  -41.0418  -21.1730 N   0  0  0  0  0  0  0  0  0  0  0  0
  -13.1331  -42.0310  -20.0114 C   0  0  0  0  0  0  0  0  0  0  0  0
  -12.5395  -41.9078  -19.0173 O   0  0  0  0  0  0  0  0  0  0  0  0
  -13.8861  -43.2813  -20.2773 C   0  0  0  0  0  0  0  0  0  0  0  0
  -14.1491  -43.6964  -21.5797 C   0  0  0  0  0  0  0  0  0  0  0  0
  -15.0999  -44.6684  -21.7929 C   0  0  0  0  0  0  0  0  0  0  0  0
  -15.6633  -45.2967  -20.6891 C   0  0  0  0  0  0  0  0  0  0  0  0
  -16.6772  -46.2968  -20.9625 C   0  0  0  0  0  0  0  0  0  0  0  0
  -17.6768  -46.0193  -21.8775 N   0  0  0  0  0  0  0  0  0  0  0  0
  -18.2774  -47.1680  -22.0216 C   0  0  0  0  0  0  0  0  0  0  0  0
  -17.6833  -48.0859  -21.2263 N   0  0  0  0  0  0  0  0  0  0  0  0
  -16.6261  -47.5842  -20.5661 N   0  0  0  0  0  0  0  0  0  0  0  0
  -15.3107  -45.0296  -19.4033 N   0  0  0  0  0  0  0  0  0  0  0  0
  -14.4441  -43.9997  -19.2282 C   0  0  0  0  0  0  0  0  0  0  0  0
  -13.2141  -37.4391  -22.0520 C   0  0  0  0  0  0  0  0  0  0  0  0
  -12.0614  -37.1611  -22.6219 N   0  0  0  0  0  0  0  0  0  0  0  0
  -11.7063  -35.9367  -22.1199 C   0  0  0  0  0  0  0  0  0  0  0  0
  -12.7163  -35.4110  -21.3535 C   0  0  0  0  0  0  0  0  0  0  0  0
  -13.6957  -36.3616  -21.3572 N   0  0  0  0  0  0  0  0  0  0  0  0
  2  1  1  6
  2  3  1  0
  3  4  1  0
  4  5  1  0
  5  6  2  0
  5  7  1  0
  7  8  2  0
  8  9  1  0
  9 10  2  0
 10 11  1  0
 11 12  1  0
 12 13  2  0
 13 14  1  0
 14 15  1  0
 10 16  1  0
 16 17  2  0
  2 18  1  0
 18 19  2  0
 19 20  1  0
 20 21  2  0
 21 22  1  0
 17  7  1  0
 22 18  1  0
 15 11  2  0
M  END
>  <energy_score>  (51) 
-35.812646

>  <name>  (51) 
QAXRUQAZQORQFQ-VIFPVBQESA-N

>  <distance_score>  (51) 
0.848256

>  <original ID>  (51) 
QAXRUQAZQORQFQ-VIFPVBQESA-N

>  <HIPPO Compound ID>  (51) 
16080

>  <exports>  (51) 
nan

>  <fragmenstein_mode>  (51) 
expansion

>  <scratch_subdir>  (51) 
/opt/xchem-fragalysis-2/maxwin/BulkDock/SCRATCH/220457/C60760-P218

>  <ref_pdb>  (51) 
d0472a

>  <ref_mols>  (51) 
d0472a,z0103a

>  <original SMILES>  (51) 
C[C@@H](CNC(=O)c1ccc(-c2nc[nH]n2)nc1)c1ncc[nH]1

>  <alias>  (51) 
None

>  <tags>  (51) 
['Fragmenstein placed', 'Knitwork impure merge', 'DF curated YES', 'Green Site/RNA tunnel merge']

>  <fragmenstein_outcome>  (51) 
too moved

>  <csv_name>  (51) 
RdRp_knitwork_green_site_rna_tunnel_impure_split4000_batch006.csv

>  <HIPPO Pose ID>  (51) 
60760

>  <SLURM_JOB_NAME>  (51) 
BulkDock.place:Flavi_NS5_RdRp:RdRp_knitwork_green_site_rna_tunnel_impure_split4000_batch006

>  <fragmenstein_runtime>  (51) 
4.037429

>  <fragmenstein_error>  (51) 
None

>  <SLURM_JOB_ID>  (51) 
220457

>  <inchikey>  (51) 
QAXRUQAZQORQFQ-VIFPVBQESA-N

$$$$
DNLUSRYLIQAQAE-NSHDSACASA-N
     RDKit          3D

 21 23  0  0  0  0  0  0  0  0999 V2000
  -15.7661  -38.7909  -23.3149 C   0  0  0  0  0  0  0  0  0  0  0  0
  -14.3812  -39.3107  -22.9399 C   0  0  2  0  0  0  0  0  0  0  0  0
  -14.4960  -40.4611  -22.0578 N   0  0  0  0  0  0  0  0  0  0  0  0
  -13.4108  -41.2885  -21.3481 C   0  0  0  0  0  0  0  0  0  0  0  0
  -12.2568  -41.1338  -21.2950 O   0  0  0  0  0  0  0  0  0  0  0  0
  -13.9911  -42.5038  -20.6890 C   0  0  0  0  0  0  0  0  0  0  0  0
  -13.4885  -42.8730  -19.4471 C   0  0  0  0  0  0  0  0  0  0  0  0
  -14.0130  -43.9991  -18.8481 C   0  0  0  0  0  0  0  0  0  0  0  0
  -14.9525  -44.7904  -19.4071 N   0  0  0  0  0  0  0  0  0  0  0  0
  -15.4280  -44.4284  -20.6293 C   0  0  0  0  0  0  0  0  0  0  0  0
  -16.4514  -45.2507  -21.1971 N   0  0  0  0  0  0  0  0  0  0  0  0
  -16.8921  -46.4511  -20.6629 C   0  0  0  0  0  0  0  0  0  0  0  0
  -17.8765  -46.9645  -21.4757 C   0  0  0  0  0  0  0  0  0  0  0  0
  -18.0847  -46.0429  -22.5194 C   0  0  0  0  0  0  0  0  0  0  0  0
  -17.1957  -45.0083  -22.3341 C   0  0  0  0  0  0  0  0  0  0  0  0
  -14.9668  -43.2984  -21.3059 C   0  0  0  0  0  0  0  0  0  0  0  0
  -13.5082  -38.2226  -22.3677 C   0  0  0  0  0  0  0  0  0  0  0  0
  -13.7911  -36.9352  -22.2756 N   0  0  0  0  0  0  0  0  0  0  0  0
  -12.6501  -36.3159  -21.8391 C   0  0  0  0  0  0  0  0  0  0  0  0
  -11.6426  -37.2292  -21.6727 C   0  0  0  0  0  0  0  0  0  0  0  0
  -12.2044  -38.4370  -21.9781 N   0  0  0  0  0  0  0  0  0  0  0  0
  2  1  1  1
  2  3  1  0
  3  4  1  0
  4  5  2  0
  4  6  1  0
  6  7  2  0
  7  8  1  0
  8  9  2  0
  9 10  1  0
 10 11  1  0
 11 12  1  0
 12 13  2  0
 13 14  1  0
 14 15  2  0
 10 16  2  0
  2 17  1  0
 17 18  2  0
 18 19  1  0
 19 20  2  0
 20 21  1  0
 16  6  1  0
 21 17  1  0
 15 11  1  0
M  END
>  <energy_score>  (52) 
-46.182851

>  <name>  (52) 
DNLUSRYLIQAQAE-NSHDSACASA-N

>  <distance_score>  (52) 
0.866441

>  <original ID>  (52) 
DNLUSRYLIQAQAE-NSHDSACASA-N

>  <HIPPO Compound ID>  (52) 
19774

>  <exports>  (52) 
['/opt/xchem-fragalysis-2/maxwin/BulkDock/OUTPUTS/RdRp_knitwork_primer_grip_n_pocket_pure_split1800_batch007_217041.sdf', '/opt/xchem-fragalysis-2/maxwin/BulkDock/OUTPUTS/RdRp_knitwork_primer_grip_n_pocket_pure_fragalysis.sdf']

>  <fragmenstein_mode>  (52) 
expansion

>  <scratch_subdir>  (52) 
/opt/xchem-fragalysis-2/maxwin/BulkDock/SCRATCH/217041/C19774-P42

>  <ref_pdb>  (52) 
d0472a

>  <ref_mols>  (52) 
d0472a,z0103a

>  <original SMILES>  (52) 
C[C@H](NC(=O)c1ccnc(-n2cccc2)c1)c1ncc[nH]1

>  <alias>  (52) 
None

>  <tags>  (52) 
['Primer grip/N-pocket merge', 'DF curated YES', 'Knitwork pure merge', 'Fragmenstein placed', 'acceptable']

>  <fragmenstein_outcome>  (52) 
acceptable

>  <csv_name>  (52) 
RdRp_knitwork_primer_grip_n_pocket_pure_split1800_batch007.csv

>  <HIPPO Pose ID>  (52) 
61491

>  <SLURM_JOB_NAME>  (52) 
BulkDock.place:Flavi_NS5_RdRp:RdRp_knitwork_primer_grip_n_pocket_pure_split1800_batch007

>  <fragmenstein_runtime>  (52) 
3.960283

>  <fragmenstein_error>  (52) 
None

>  <SLURM_JOB_ID>  (52) 
217041

>  <inchikey>  (52) 
DNLUSRYLIQAQAE-NSHDSACASA-N

$$$$
SSVXXQWWLAHTNL-UHFFFAOYSA-N
     RDKit          3D

 22 25  0  0  0  0  0  0  0  0999 V2000
  -11.6159  -36.5188  -22.0470 C   0  0  0  0  0  0  0  0  0  0  0  0
  -12.8304  -35.8840  -21.9440 C   0  0  0  0  0  0  0  0  0  0  0  0
  -14.0167  -36.5329  -21.8757 N   0  0  0  0  0  0  0  0  0  0  0  0
  -13.9928  -37.8870  -21.8396 C   0  0  0  0  0  0  0  0  0  0  0  0
  -12.8254  -38.6191  -21.8583 C   0  0  0  0  0  0  0  0  0  0  0  0
  -12.7457  -40.0177  -21.5076 C   0  0  0  0  0  0  0  0  0  0  0  0
  -11.6453  -40.6152  -21.1136 N   0  0  0  0  0  0  0  0  0  0  0  0
  -12.0003  -41.8362  -20.6603 N   0  0  0  0  0  0  0  0  0  0  0  0
  -13.2959  -41.9539  -20.8481 C   0  0  0  0  0  0  0  0  0  0  0  0
  -14.1302  -43.0345  -20.3581 C   0  0  0  0  0  0  0  0  0  0  0  0
  -13.8420  -43.5074  -19.0720 C   0  0  0  0  0  0  0  0  0  0  0  0
  -14.5442  -44.5833  -18.5839 C   0  0  0  0  0  0  0  0  0  0  0  0
  -15.4604  -45.2467  -19.3026 N   0  0  0  0  0  0  0  0  0  0  0  0
  -15.7550  -44.7768  -20.5452 C   0  0  0  0  0  0  0  0  0  0  0  0
  -16.7575  -45.4970  -21.2446 N   0  0  0  0  0  0  0  0  0  0  0  0
  -17.3299  -46.6779  -20.8173 C   0  0  0  0  0  0  0  0  0  0  0  0
  -18.2401  -47.0238  -21.7827 C   0  0  0  0  0  0  0  0  0  0  0  0
  -18.2712  -46.0844  -22.7756 N   0  0  0  0  0  0  0  0  0  0  0  0
  -17.3701  -45.1893  -22.4326 C   0  0  0  0  0  0  0  0  0  0  0  0
  -15.1234  -43.6664  -21.1097 C   0  0  0  0  0  0  0  0  0  0  0  0
  -13.8635  -40.8151  -21.3849 O   0  0  0  0  0  0  0  0  0  0  0  0
  -11.6208  -37.9038  -22.0117 C   0  0  0  0  0  0  0  0  0  0  0  0
  1  2  2  0
  2  3  1  0
  3  4  2  0
  4  5  1  0
  5  6  1  0
  6  7  2  0
  7  8  1  0
  8  9  2  0
  9 10  1  0
 10 11  2  0
 11 12  1  0
 12 13  2  0
 13 14  1  0
 14 15  1  0
 15 16  1  0
 16 17  2  0
 17 18  1  0
 18 19  2  0
 14 20  2  0
  9 21  1  0
  5 22  2  0
 22  1  1  0
 21  6  1  0
 20 10  1  0
 19 15  1  0
M  END
>  <energy_score>  (53) 
-20.155261

>  <name>  (53) 
SSVXXQWWLAHTNL-UHFFFAOYSA-N

>  <distance_score>  (53) 
0.961848

>  <original ID>  (53) 
SSVXXQWWLAHTNL-UHFFFAOYSA-N

>  <HIPPO Compound ID>  (53) 
21233

>  <exports>  (53) 
nan

>  <fragmenstein_mode>  (53) 
expansion

>  <scratch_subdir>  (53) 
/opt/xchem-fragalysis-2/maxwin/BulkDock/SCRATCH/220469/C63254-P153

>  <ref_pdb>  (53) 
d0472a

>  <ref_mols>  (53) 
d0472a,z0103a

>  <original SMILES>  (53) 
c1cncc(-c2nnc(-c3ccnc(-n4ccnc4)c3)o2)c1

>  <alias>  (53) 
None

>  <tags>  (53) 
['Knitwork impure merge', 'DF curated YES', 'AC curated INTERESTING', 'Fragmenstein placed', 'Green Site/RNA tunnel merge']

>  <fragmenstein_outcome>  (53) 
too moved

>  <csv_name>  (53) 
RdRp_knitwork_green_site_rna_tunnel_impure_split4000_batch018.csv

>  <HIPPO Pose ID>  (53) 
63254

>  <SLURM_JOB_NAME>  (53) 
BulkDock.place:Flavi_NS5_RdRp:RdRp_knitwork_green_site_rna_tunnel_impure_split4000_batch018

>  <fragmenstein_runtime>  (53) 
14.556257

>  <fragmenstein_error>  (53) 
None

>  <SLURM_JOB_ID>  (53) 
220469

>  <inchikey>  (53) 
SSVXXQWWLAHTNL-UHFFFAOYSA-N

$$$$
UIYHLUVSYDHDET-HNNXBMFYSA-N
     RDKit          3D

 22 25  0  0  0  0  0  0  0  0999 V2000
  -13.2965  -38.0601  -19.5251 O   0  0  0  0  0  0  0  0  0  0  0  0
  -12.7670  -38.8962  -20.1406 C   0  0  0  0  0  0  0  0  0  0  0  0
  -11.4088  -39.5939  -19.9180 N   0  0  0  0  0  0  0  0  0  0  0  0
  -10.3558  -39.3374  -18.9270 C   0  0  1  0  0  0  0  0  0  0  0  0
   -8.9643  -39.8680  -19.4186 C   0  0  0  0  0  0  0  0  0  0  0  0
   -8.6234  -38.4223  -19.8598 C   0  0  0  0  0  0  0  0  0  0  0  0
   -9.6927  -37.9820  -18.8842 C   0  0  0  0  0  0  0  0  0  0  0  0
  -10.3829  -36.6659  -19.0684 C   0  0  0  0  0  0  0  0  0  0  0  0
   -9.4503  -36.0985  -18.0455 N   0  0  0  0  0  0  0  0  0  0  0  0
   -9.2165  -37.4749  -17.5365 C   0  0  0  0  0  0  0  0  0  0  0  0
  -13.4587  -39.4471  -21.3304 C   0  0  0  0  0  0  0  0  0  0  0  0
  -13.6462  -40.8119  -21.5261 C   0  0  0  0  0  0  0  0  0  0  0  0
  -14.3551  -41.2489  -22.6515 C   0  0  0  0  0  0  0  0  0  0  0  0
  -14.8323  -40.3171  -23.5770 C   0  0  0  0  0  0  0  0  0  0  0  0
  -15.6041  -40.6929  -24.7827 C   0  0  0  0  0  0  0  0  0  0  0  0
  -15.5341  -39.9322  -25.9584 C   0  0  0  0  0  0  0  0  0  0  0  0
  -16.3066  -40.2912  -27.0568 C   0  0  0  0  0  0  0  0  0  0  0  0
  -17.1550  -41.3433  -27.0763 N   0  0  0  0  0  0  0  0  0  0  0  0
  -17.2054  -42.0731  -25.9439 C   0  0  0  0  0  0  0  0  0  0  0  0
  -16.4670  -41.7976  -24.8000 C   0  0  0  0  0  0  0  0  0  0  0  0
  -14.6351  -38.9851  -23.3882 N   0  0  0  0  0  0  0  0  0  0  0  0
  -13.9896  -38.5786  -22.2658 C   0  0  0  0  0  0  0  0  0  0  0  0
  1  2  2  0
  2  3  1  0
  4  3  1  6
  4  5  1  0
  5  6  1  0
  6  7  1  0
  7  8  1  0
  8  9  1  0
  9 10  1  0
  2 11  1  0
 11 12  2  0
 12 13  1  0
 13 14  2  0
 14 15  1  0
 15 16  2  0
 16 17  1  0
 17 18  2  0
 18 19  1  0
 19 20  2  0
 14 21  1  0
 21 22  2  0
  7  4  1  0
 22 11  1  0
 10  7  1  0
 20 15  1  0
M  END
>  <energy_score>  (54) 
-3.731862

>  <name>  (54) 
UIYHLUVSYDHDET-HNNXBMFYSA-N

>  <distance_score>  (54) 
0.664786

>  <original ID>  (54) 
UIYHLUVSYDHDET-HNNXBMFYSA-N

>  <HIPPO Compound ID>  (54) 
26127

>  <exports>  (54) 
nan

>  <fragmenstein_mode>  (54) 
expansion

>  <scratch_subdir>  (54) 
/opt/xchem-fragalysis-2/maxwin/BulkDock/SCRATCH/220456/C65179-P100

>  <ref_pdb>  (54) 
d0472a

>  <ref_mols>  (54) 
d0160a,d0472a

>  <original SMILES>  (54) 
O=C(N[C@H]1CCC12CNC2)c1ccc(-c2ccncc2)nc1

>  <alias>  (54) 
None

>  <tags>  (54) 
['DF curated INTERESTING', 'Knitwork impure merge', 'AC curated INTERESTING', 'Fragmenstein placed', 'Green Site/RNA tunnel merge']

>  <fragmenstein_outcome>  (54) 
too moved

>  <csv_name>  (54) 
RdRp_knitwork_green_site_rna_tunnel_impure_split4000_batch005.csv

>  <HIPPO Pose ID>  (54) 
65179

>  <SLURM_JOB_NAME>  (54) 
BulkDock.place:Flavi_NS5_RdRp:RdRp_knitwork_green_site_rna_tunnel_impure_split4000_batch005

>  <fragmenstein_runtime>  (54) 
8.245188

>  <fragmenstein_error>  (54) 
None

>  <SLURM_JOB_ID>  (54) 
220456

>  <inchikey>  (54) 
UIYHLUVSYDHDET-HNNXBMFYSA-N

$$$$
CCDQLSZZRRFIMQ-KWQFWETISA-N
     RDKit          3D

 18 19  0  0  0  0  0  0  0  0999 V2000
  -18.5536  -45.1670  -22.9736 C   0  0  0  0  0  0  0  0  0  0  0  0
  -17.2864  -45.2070  -22.1234 C   0  0  1  0  0  0  0  0  0  0  0  0
  -16.7503  -43.8102  -21.7850 C   0  0  0  0  0  0  0  0  0  0  0  0
  -16.2117  -43.0608  -22.9945 C   0  0  0  0  0  0  0  0  0  0  0  0
  -16.4920  -43.3046  -24.1001 O   0  0  0  0  0  0  0  0  0  0  0  0
  -15.3486  -41.9115  -22.4052 N   0  0  0  0  0  0  0  0  0  0  0  0
  -14.7691  -40.8389  -23.0142 C   0  0  0  0  0  0  0  0  0  0  0  0
  -13.9354  -39.8757  -22.3986 C   0  0  0  0  0  0  0  0  0  0  0  0
  -13.5328  -38.9283  -23.2511 N   0  0  0  0  0  0  0  0  0  0  0  0
  -14.1158  -39.3069  -24.4096 N   0  0  0  0  0  0  0  0  0  0  0  0
  -14.8654  -40.4329  -24.3208 C   0  0  0  0  0  0  0  0  0  0  0  0
  -15.5686  -40.8895  -25.4576 C   0  0  0  0  0  0  0  0  0  0  0  0
  -16.1112  -41.0958  -26.4610 N   0  0  0  0  0  0  0  0  0  0  0  0
  -17.5056  -46.0459  -20.8485 C   0  0  2  0  0  0  0  0  0  0  0  0
  -18.6025  -45.5508  -19.9115 C   0  0  0  0  0  0  0  0  0  0  0  0
  -18.1152  -46.0187  -18.5645 C   0  0  0  0  0  0  0  0  0  0  0  0
  -16.6174  -45.8714  -18.6929 C   0  0  0  0  0  0  0  0  0  0  0  0
  -16.2895  -46.0674  -20.0728 O   0  0  0  0  0  0  0  0  0  0  0  0
  2  1  1  1
  2  3  1  0
  3  4  1  0
  4  5  2  0
  4  6  1  0
  6  7  1  0
  7  8  1  0
  8  9  2  0
  9 10  1  0
 10 11  1  0
 11 12  1  0
 12 13  3  0
  2 14  1  0
 14 15  1  1
 15 16  1  0
 16 17  1  0
 17 18  1  0
 11  7  2  0
 18 14  1  0
M  END
>  <energy_score>  (55) 
-33.97969

>  <name>  (55) 
CCDQLSZZRRFIMQ-KWQFWETISA-N

>  <distance_score>  (55) 
0.722332

>  <original ID>  (55) 
CCDQLSZZRRFIMQ-KWQFWETISA-N

>  <HIPPO Compound ID>  (55) 
22539

>  <exports>  (55) 
nan

>  <fragmenstein_mode>  (55) 
expansion

>  <scratch_subdir>  (55) 
/opt/xchem-fragalysis-2/maxwin/BulkDock/SCRATCH/220451/C65443-P196

>  <ref_pdb>  (55) 
d0254a

>  <ref_mols>  (55) 
d0160a,d0254a

>  <original SMILES>  (55) 
C[C@@H](CC(=O)Nc1cn[nH]c1C#N)[C@@H]1CCCO1

>  <alias>  (55) 
None

>  <tags>  (55) 
['DF curated INTERESTING', 'Knitwork impure merge', 'AC curated INTERESTING', 'Fragmenstein placed', 'Green Site/RNA tunnel merge']

>  <fragmenstein_outcome>  (55) 
too moved

>  <csv_name>  (55) 
RdRp_knitwork_green_site_rna_tunnel_impure_split4000_batch000.csv

>  <HIPPO Pose ID>  (55) 
65443

>  <SLURM_JOB_NAME>  (55) 
BulkDock.place:Flavi_NS5_RdRp:RdRp_knitwork_green_site_rna_tunnel_impure_split4000_batch000

>  <fragmenstein_runtime>  (55) 
4.828158

>  <fragmenstein_error>  (55) 
None

>  <SLURM_JOB_ID>  (55) 
220451

>  <inchikey>  (55) 
CCDQLSZZRRFIMQ-KWQFWETISA-N

$$$$
GYTSIWMUBRJWHK-JTQLQIEISA-N
     RDKit          3D

 17 18  0  0  0  0  0  0  0  0999 V2000
  -12.1642  -38.3523  -21.9574 C   0  0  0  0  0  0  0  0  0  0  0  0
  -13.1593  -39.3355  -22.3143 N   0  0  0  0  0  0  0  0  0  0  0  0
  -13.4716  -40.4732  -21.6376 C   0  0  0  0  0  0  0  0  0  0  0  0
  -14.4585  -41.1137  -22.3675 C   0  0  0  0  0  0  0  0  0  0  0  0
  -15.0843  -42.3758  -21.9957 C   0  0  0  0  0  0  0  0  0  0  0  0
  -14.7773  -42.9287  -20.9344 O   0  0  0  0  0  0  0  0  0  0  0  0
  -16.1306  -42.9906  -22.9360 C   0  0  0  0  0  0  0  0  0  0  0  0
  -16.7147  -44.1291  -22.2626 N   0  0  0  0  0  0  0  0  0  0  0  0
  -18.1622  -44.3675  -21.7583 C   0  0  0  0  0  0  0  0  0  0  0  0
  -19.1236  -43.7131  -21.8781 O   0  0  0  0  0  0  0  0  0  0  0  0
  -18.1001  -45.6963  -20.9475 C   0  0  2  0  0  0  0  0  0  0  0  0
  -18.9146  -45.5841  -19.6619 C   0  0  0  0  0  0  0  0  0  0  0  0
  -17.9599  -46.0126  -18.5724 C   0  0  0  0  0  0  0  0  0  0  0  0
  -16.6100  -45.7137  -19.1720 C   0  0  0  0  0  0  0  0  0  0  0  0
  -16.7471  -46.0249  -20.5623 O   0  0  0  0  0  0  0  0  0  0  0  0
  -14.6616  -40.2597  -23.4742 C   0  0  0  0  0  0  0  0  0  0  0  0
  -13.8889  -39.1678  -23.4293 N   0  0  0  0  0  0  0  0  0  0  0  0
  1  2  1  0
  2  3  1  0
  3  4  2  0
  4  5  1  0
  5  6  2  0
  5  7  1  0
  7  8  1  0
  8  9  1  0
  9 10  2  0
 11  9  1  1
 11 12  1  0
 12 13  1  0
 13 14  1  0
 14 15  1  0
  4 16  1  0
 16 17  2  0
 17  2  1  0
 15 11  1  0
M  END
>  <energy_score>  (56) 
-32.430878

>  <name>  (56) 
GYTSIWMUBRJWHK-JTQLQIEISA-N

>  <distance_score>  (56) 
0.93703

>  <original ID>  (56) 
GYTSIWMUBRJWHK-JTQLQIEISA-N

>  <HIPPO Compound ID>  (56) 
22542

>  <exports>  (56) 
nan

>  <fragmenstein_mode>  (56) 
expansion

>  <scratch_subdir>  (56) 
/opt/xchem-fragalysis-2/maxwin/BulkDock/SCRATCH/220456/C65456-P100

>  <ref_pdb>  (56) 
d0254a

>  <ref_mols>  (56) 
d0160a,d0254a

>  <original SMILES>  (56) 
Cn1cc(C(=O)CNC(=O)[C@@H]2CCCO2)cn1

>  <alias>  (56) 
None

>  <tags>  (56) 
['DF curated INTERESTING', 'Knitwork impure merge', 'Fragmenstein placed', 'Green Site/RNA tunnel merge']

>  <fragmenstein_outcome>  (56) 
too moved

>  <csv_name>  (56) 
RdRp_knitwork_green_site_rna_tunnel_impure_split4000_batch005.csv

>  <HIPPO Pose ID>  (56) 
65456

>  <SLURM_JOB_NAME>  (56) 
BulkDock.place:Flavi_NS5_RdRp:RdRp_knitwork_green_site_rna_tunnel_impure_split4000_batch005

>  <fragmenstein_runtime>  (56) 
7.730361

>  <fragmenstein_error>  (56) 
None

>  <SLURM_JOB_ID>  (56) 
220456

>  <inchikey>  (56) 
GYTSIWMUBRJWHK-JTQLQIEISA-N

$$$$
BGISRZGITIPTJB-OAHLLOKOSA-N
     RDKit          3D

 20 22  0  0  0  0  0  0  0  0999 V2000
  -13.6209  -42.8647  -20.6449 C   0  0  0  0  0  0  0  0  0  0  0  0
  -14.7843  -41.9794  -21.1380 C   0  0  0  0  0  0  0  0  0  0  0  0
  -15.1819  -41.0741  -19.9476 C   0  0  0  0  0  0  0  0  0  0  0  0
  -15.9771  -42.7811  -21.4594 N   0  0  0  0  0  0  0  0  0  0  0  0
  -15.7400  -43.8290  -22.4386 C   0  0  0  0  0  0  0  0  0  0  0  0
  -17.0316  -44.2105  -23.0350 C   0  0  0  0  0  0  0  0  0  0  0  0
  -17.5592  -43.7382  -24.2245 C   0  0  0  0  0  0  0  0  0  0  0  0
  -18.7913  -44.3710  -24.3550 C   0  0  0  0  0  0  0  0  0  0  0  0
  -19.0465  -45.1722  -23.3290 N   0  0  0  0  0  0  0  0  0  0  0  0
  -17.9597  -45.0852  -22.5256 N   0  0  0  0  0  0  0  0  0  0  0  0
  -18.0418  -45.8126  -21.2682 C   0  0  0  0  0  0  0  0  0  0  0  0
  -18.6665  -44.9741  -20.1427 C   0  0  0  0  0  0  0  0  0  0  0  0
  -18.0468  -45.5149  -18.8631 C   0  0  0  0  0  0  0  0  0  0  0  0
  -16.6237  -45.8486  -19.2754 C   0  0  0  0  0  0  0  0  0  0  0  0
  -16.7815  -46.4556  -20.6652 C   0  0  0  0  0  0  0  0  0  0  0  0
  -14.3317  -41.1175  -22.3494 C   0  0  1  0  0  0  0  0  0  0  0  0
  -15.3952  -40.2417  -23.0002 C   0  0  0  0  0  0  0  0  0  0  0  0
  -14.5521  -39.1739  -23.6428 C   0  0  0  0  0  0  0  0  0  0  0  0
  -13.4691  -38.9707  -22.6080 C   0  0  0  0  0  0  0  0  0  0  0  0
  -13.2391  -40.2416  -21.9944 O   0  0  0  0  0  0  0  0  0  0  0  0
  1  2  1  0
  2  3  1  0
  2  4  1  0
  4  5  1  0
  5  6  1  0
  6  7  2  0
  7  8  1  0
  8  9  2  0
  9 10  1  0
 10 11  1  0
 11 12  1  0
 12 13  1  0
 13 14  1  0
 14 15  1  0
 16  2  1  1
 16 17  1  0
 17 18  1  0
 18 19  1  0
 19 20  1  0
 10  6  1  0
 15 11  1  0
 20 16  1  0
M  END
>  <energy_score>  (57) 
-33.077857

>  <name>  (57) 
BGISRZGITIPTJB-OAHLLOKOSA-N

>  <distance_score>  (57) 
0.914848

>  <original ID>  (57) 
BGISRZGITIPTJB-OAHLLOKOSA-N

>  <HIPPO Compound ID>  (57) 
22777

>  <exports>  (57) 
['/opt/xchem-fragalysis-2/maxwin/BulkDock/OUTPUTS/RdRp_knitwork_primer_grip_n_pocket_pure_split1800_batch008_217042.sdf', '/opt/xchem-fragalysis-2/maxwin/BulkDock/OUTPUTS/RdRp_knitwork_primer_grip_n_pocket_pure_fragalysis.sdf']

>  <fragmenstein_mode>  (57) 
expansion

>  <scratch_subdir>  (57) 
/opt/xchem-fragalysis-2/maxwin/BulkDock/SCRATCH/217042/C22777-P26

>  <ref_pdb>  (57) 
d0254a

>  <ref_mols>  (57) 
d0160a,d0254a

>  <original SMILES>  (57) 
CC(C)(NCc1ccnn1C1CCCC1)[C@H]1CCCO1

>  <alias>  (57) 
None

>  <tags>  (57) 
['DF curated INTERESTING', 'Primer grip/N-pocket merge', 'Knitwork pure merge', 'Fragmenstein placed', 'acceptable']

>  <fragmenstein_outcome>  (57) 
acceptable

>  <csv_name>  (57) 
RdRp_knitwork_primer_grip_n_pocket_pure_split1800_batch008.csv

>  <HIPPO Pose ID>  (57) 
65964

>  <SLURM_JOB_NAME>  (57) 
BulkDock.place:Flavi_NS5_RdRp:RdRp_knitwork_primer_grip_n_pocket_pure_split1800_batch008

>  <fragmenstein_runtime>  (57) 
9.728171

>  <fragmenstein_error>  (57) 
None

>  <SLURM_JOB_ID>  (57) 
217042

>  <inchikey>  (57) 
BGISRZGITIPTJB-OAHLLOKOSA-N

$$$$
PKXYYGMIJNAOPA-GFCCVEGCSA-N
     RDKit          3D

 19 21  0  0  0  0  0  0  0  0999 V2000
  -18.1957  -43.9931  -23.4421 O   0  0  0  0  0  0  0  0  0  0  0  0
  -17.3678  -44.1977  -22.6487 C   0  0  0  0  0  0  0  0  0  0  0  0
  -15.8888  -43.7839  -22.6232 N   0  0  0  0  0  0  0  0  0  0  0  0
  -15.1357  -42.9499  -23.5219 C   0  0  0  0  0  0  0  0  0  0  0  0
  -15.1488  -41.4944  -23.0517 C   0  0  1  0  0  0  0  0  0  0  0  0
  -14.3468  -41.2281  -21.7881 C   0  0  0  0  0  0  0  0  0  0  0  0
  -14.1531  -39.7319  -21.8575 C   0  0  0  0  0  0  0  0  0  0  0  0
  -14.1342  -39.4402  -23.3450 C   0  0  0  0  0  0  0  0  0  0  0  0
  -14.5655  -40.6218  -24.0279 O   0  0  0  0  0  0  0  0  0  0  0  0
  -17.6749  -44.8816  -21.3763 C   0  0  0  0  0  0  0  0  0  0  0  0
  -18.9422  -45.2883  -20.8969 C   0  0  0  0  0  0  0  0  0  0  0  0
  -18.7256  -45.7940  -19.6410 C   0  0  0  0  0  0  0  0  0  0  0  0
  -17.3968  -45.6178  -19.4039 N   0  0  0  0  0  0  0  0  0  0  0  0
  -16.7538  -45.7496  -18.1093 C   0  0  0  0  0  0  0  0  0  0  0  0
  -15.2285  -45.6827  -18.1654 C   0  0  0  0  0  0  0  0  0  0  0  0
  -14.8836  -44.1920  -18.1484 C   0  0  0  0  0  0  0  0  0  0  0  0
  -16.1138  -43.4740  -17.5910 C   0  0  0  0  0  0  0  0  0  0  0  0
  -17.1089  -44.5672  -17.2050 C   0  0  0  0  0  0  0  0  0  0  0  0
  -16.7209  -45.1260  -20.4575 N   0  0  0  0  0  0  0  0  0  0  0  0
  1  2  2  0
  2  3  1  0
  3  4  1  0
  5  4  1  6
  5  6  1  0
  6  7  1  0
  7  8  1  0
  8  9  1  0
  2 10  1  0
 10 11  1  0
 11 12  2  0
 12 13  1  0
 13 14  1  0
 14 15  1  0
 15 16  1  0
 16 17  1  0
 17 18  1  0
 13 19  1  0
  9  5  1  0
 19 10  2  0
 18 14  1  0
M  END
>  <energy_score>  (58) 
-20.060613

>  <name>  (58) 
PKXYYGMIJNAOPA-GFCCVEGCSA-N

>  <distance_score>  (58) 
0.987262

>  <original ID>  (58) 
PKXYYGMIJNAOPA-GFCCVEGCSA-N

>  <HIPPO Compound ID>  (58) 
22810

>  <exports>  (58) 
nan

>  <fragmenstein_mode>  (58) 
expansion

>  <scratch_subdir>  (58) 
/opt/xchem-fragalysis-2/maxwin/BulkDock/SCRATCH/220463/C66089-P206

>  <ref_pdb>  (58) 
d0254a

>  <ref_mols>  (58) 
d0160a,d0254a

>  <original SMILES>  (58) 
O=C(NC[C@H]1CCCO1)c1ccn(C2CCCC2)n1

>  <alias>  (58) 
None

>  <tags>  (58) 
['DF curated INTERESTING', 'Knitwork impure merge', 'Fragmenstein placed', 'Green Site/RNA tunnel merge']

>  <fragmenstein_outcome>  (58) 
too moved

>  <csv_name>  (58) 
RdRp_knitwork_green_site_rna_tunnel_impure_split4000_batch012.csv

>  <HIPPO Pose ID>  (58) 
66089

>  <SLURM_JOB_NAME>  (58) 
BulkDock.place:Flavi_NS5_RdRp:RdRp_knitwork_green_site_rna_tunnel_impure_split4000_batch012

>  <fragmenstein_runtime>  (58) 
10.211164

>  <fragmenstein_error>  (58) 
None

>  <SLURM_JOB_ID>  (58) 
220463

>  <inchikey>  (58) 
PKXYYGMIJNAOPA-GFCCVEGCSA-N

$$$$
JUSGTJATUSPCAX-LBPRGKRZSA-N
     RDKit          3D

 20 22  0  0  0  0  0  0  0  0999 V2000
  -16.1123  -45.3702  -22.6853 O   0  0  0  0  0  0  0  0  0  0  0  0
  -17.2778  -44.5707  -22.4180 S   0  0  0  0  0  0  0  0  0  0  0  0
  -18.5200  -44.7191  -23.1365 O   0  0  0  0  0  0  0  0  0  0  0  0
  -16.8078  -42.9593  -22.5633 N   0  0  0  0  0  0  0  0  0  0  0  0
  -15.4143  -42.6623  -22.1307 C   0  0  0  0  0  0  0  0  0  0  0  0
  -15.1685  -41.1591  -22.2044 C   0  0  2  0  0  0  0  0  0  0  0  0
  -15.0224  -40.6467  -23.6213 C   0  0  0  0  0  0  0  0  0  0  0  0
  -14.2986  -39.3500  -23.3903 C   0  0  0  0  0  0  0  0  0  0  0  0
  -13.4269  -39.6291  -22.1828 C   0  0  0  0  0  0  0  0  0  0  0  0
  -13.9491  -40.7981  -21.5383 O   0  0  0  0  0  0  0  0  0  0  0  0
  -17.6479  -44.9124  -20.7932 C   0  0  0  0  0  0  0  0  0  0  0  0
  -18.9257  -45.0971  -20.2576 C   0  0  0  0  0  0  0  0  0  0  0  0
  -18.8911  -45.2450  -18.9302 N   0  0  0  0  0  0  0  0  0  0  0  0
  -17.5777  -45.2002  -18.6357 N   0  0  0  0  0  0  0  0  0  0  0  0
  -17.1434  -45.1794  -17.2554 C   0  0  0  0  0  0  0  0  0  0  0  0
  -17.5099  -43.8670  -16.5371 C   0  0  0  0  0  0  0  0  0  0  0  0
  -18.2780  -44.2804  -15.2879 C   0  0  0  0  0  0  0  0  0  0  0  0
  -17.7954  -45.6911  -15.0044 C   0  0  0  0  0  0  0  0  0  0  0  0
  -17.7042  -46.3120  -16.3882 C   0  0  0  0  0  0  0  0  0  0  0  0
  -16.7812  -45.0334  -19.7300 C   0  0  0  0  0  0  0  0  0  0  0  0
  1  2  2  0
  2  3  2  0
  2  4  1  0
  4  5  1  0
  6  5  1  6
  6  7  1  0
  7  8  1  0
  8  9  1  0
  9 10  1  0
  2 11  1  0
 11 12  1  0
 12 13  2  0
 13 14  1  0
 14 15  1  0
 15 16  1  0
 16 17  1  0
 17 18  1  0
 18 19  1  0
 14 20  1  0
 10  6  1  0
 20 11  2  0
 19 15  1  0
M  END
>  <energy_score>  (59) 
-41.574015

>  <name>  (59) 
JUSGTJATUSPCAX-LBPRGKRZSA-N

>  <distance_score>  (59) 
0.877785

>  <original ID>  (59) 
JUSGTJATUSPCAX-LBPRGKRZSA-N

>  <HIPPO Compound ID>  (59) 
23189

>  <exports>  (59) 
['/opt/xchem-fragalysis-2/maxwin/BulkDock/OUTPUTS/RdRp_knitwork_primer_grip_n_pocket_pure_split1800_batch008_217042.sdf', '/opt/xchem-fragalysis-2/maxwin/BulkDock/OUTPUTS/RdRp_knitwork_primer_grip_n_pocket_pure_fragalysis.sdf']

>  <fragmenstein_mode>  (59) 
expansion

>  <scratch_subdir>  (59) 
/opt/xchem-fragalysis-2/maxwin/BulkDock/SCRATCH/217042/C23189-P12

>  <ref_pdb>  (59) 
d0160a

>  <ref_mols>  (59) 
d0160a,d0254a

>  <original SMILES>  (59) 
O=S(=O)(NC[C@@H]1CCCO1)c1cnn(C2CCCC2)c1

>  <alias>  (59) 
None

>  <tags>  (59) 
['DF curated INTERESTING', 'Primer grip/N-pocket merge', 'AC curated INTERESTING', 'Knitwork pure merge', 'Fragmenstein placed', 'acceptable']

>  <fragmenstein_outcome>  (59) 
acceptable

>  <csv_name>  (59) 
RdRp_knitwork_primer_grip_n_pocket_pure_split1800_batch008.csv

>  <HIPPO Pose ID>  (59) 
66265

>  <SLURM_JOB_NAME>  (59) 
BulkDock.place:Flavi_NS5_RdRp:RdRp_knitwork_primer_grip_n_pocket_pure_split1800_batch008

>  <fragmenstein_runtime>  (59) 
8.494449

>  <fragmenstein_error>  (59) 
None

>  <SLURM_JOB_ID>  (59) 
217042

>  <inchikey>  (59) 
JUSGTJATUSPCAX-LBPRGKRZSA-N

$$$$
JUQITCQTBRXLFI-UHFFFAOYSA-N
     RDKit          3D

 14 15  0  0  0  0  0  0  0  0999 V2000
  -18.2538  -38.5696  -26.7574 Cl  0  0  0  0  0  0  0  0  0  0  0  0
  -17.2347  -39.8957  -26.4452 C   0  0  0  0  0  0  0  0  0  0  0  0
  -16.0625  -39.6685  -25.7629 C   0  0  0  0  0  0  0  0  0  0  0  0
  -15.4115  -40.7700  -25.2490 C   0  0  0  0  0  0  0  0  0  0  0  0
  -14.2386  -40.6541  -24.5215 N   0  0  0  0  0  0  0  0  0  0  0  0
  -14.2341  -39.7991  -23.3454 C   0  0  0  0  0  0  0  0  0  0  0  0
  -14.1728  -40.6631  -22.1528 C   0  0  0  0  0  0  0  0  0  0  0  0
  -13.2390  -40.8545  -21.1646 C   0  0  0  0  0  0  0  0  0  0  0  0
  -13.7140  -41.9732  -20.4552 C   0  0  0  0  0  0  0  0  0  0  0  0
  -14.8897  -42.4166  -20.9062 N   0  0  0  0  0  0  0  0  0  0  0  0
  -15.1308  -41.6203  -21.9539 N   0  0  0  0  0  0  0  0  0  0  0  0
  -15.9002  -42.0409  -25.5367 C   0  0  0  0  0  0  0  0  0  0  0  0
  -17.0599  -42.1560  -26.2774 C   0  0  0  0  0  0  0  0  0  0  0  0
  -17.7606  -41.1034  -26.7364 N   0  0  0  0  0  0  0  0  0  0  0  0
  1  2  1  0
  2  3  2  0
  3  4  1  0
  4  5  1  0
  5  6  1  0
  6  7  1  0
  7  8  2  0
  8  9  1  0
  9 10  2  0
 10 11  1  0
  4 12  2  0
 12 13  1  0
 13 14  2  0
 14  2  1  0
 11  7  1  0
M  END
>  <energy_score>  (60) 
-21.443638

>  <name>  (60) 
JUQITCQTBRXLFI-UHFFFAOYSA-N

>  <distance_score>  (60) 
1.695181

>  <original ID>  (60) 
JUQITCQTBRXLFI-UHFFFAOYSA-N

>  <HIPPO Compound ID>  (60) 
18236

>  <exports>  (60) 
['/opt/xchem-fragalysis-2/maxwin/BulkDock/OUTPUTS/RdRp_knitwork_primer_grip_n_pocket_pure_fragalysis.sdf']

>  <fragmenstein_mode>  (60) 
expansion

>  <scratch_subdir>  (60) 
/opt/xchem-fragalysis-2/maxwin/BulkDock/SCRATCH/217965/C67005-P104

>  <ref_pdb>  (60) 
d0160a

>  <ref_mols>  (60) 
d0160a,d0191a

>  <original SMILES>  (60) 
Clc1cc(NCc2ccn[nH]2)ccn1

>  <alias>  (60) 
None

>  <tags>  (60) 
['DF curated INTERESTING', 'Primer grip/N-pocket merge', 'Fragmenstein pure merge', 'Knitwork pure merge', 'Fragmenstein placed', 'Green Site/RNA tunnel merge', 'acceptable']

>  <fragmenstein_outcome>  (60) 
acceptable

>  <csv_name>  (60) 
green_site_rna_tunnel_fstein_bulkdock_input_split1000_batch000.csv

>  <HIPPO Pose ID>  (60) 
67005

>  <SLURM_JOB_NAME>  (60) 
BulkDock.place:Flavi_NS5_RdRp:green_site_rna_tunnel_fstein_bulkdock_input_split1000_batch000

>  <fragmenstein_runtime>  (60) 
1.309471

>  <fragmenstein_error>  (60) 
None

>  <SLURM_JOB_ID>  (60) 
217965

>  <inchikey>  (60) 
JUQITCQTBRXLFI-UHFFFAOYSA-N

$$$$
FMJBOIXFOZOLDO-UHFFFAOYSA-N
     RDKit          3D

 14 15  0  0  0  0  0  0  0  0999 V2000
  -15.9257  -42.9079  -24.6269 F   0  0  0  0  0  0  0  0  0  0  0  0
  -16.2714  -41.9216  -25.4666 C   0  0  0  0  0  0  0  0  0  0  0  0
  -17.3800  -42.0722  -26.2767 C   0  0  0  0  0  0  0  0  0  0  0  0
  -17.8133  -41.1339  -27.1501 N   0  0  0  0  0  0  0  0  0  0  0  0
  -17.0957  -39.9873  -27.1777 C   0  0  0  0  0  0  0  0  0  0  0  0
  -15.9910  -39.7336  -26.3816 C   0  0  0  0  0  0  0  0  0  0  0  0
  -15.5438  -40.7329  -25.5248 C   0  0  0  0  0  0  0  0  0  0  0  0
  -14.4184  -40.4970  -24.7352 N   0  0  0  0  0  0  0  0  0  0  0  0
  -14.6100  -39.7670  -23.4948 C   0  0  0  0  0  0  0  0  0  0  0  0
  -14.4143  -40.6604  -22.3347 C   0  0  0  0  0  0  0  0  0  0  0  0
  -13.3842  -40.8185  -21.4379 C   0  0  0  0  0  0  0  0  0  0  0  0
  -13.7329  -41.9690  -20.7089 C   0  0  0  0  0  0  0  0  0  0  0  0
  -14.9236  -42.4607  -21.0579 N   0  0  0  0  0  0  0  0  0  0  0  0
  -15.3090  -41.6578  -22.0564 N   0  0  0  0  0  0  0  0  0  0  0  0
  1  2  1  0
  2  3  2  0
  3  4  1  0
  4  5  2  0
  5  6  1  0
  6  7  2  0
  7  8  1  0
  8  9  1  0
  9 10  1  0
 10 11  2  0
 11 12  1  0
 12 13  2  0
 13 14  1  0
  7  2  1  0
 14 10  1  0
M  END
>  <energy_score>  (61) 
-21.232766

>  <name>  (61) 
FMJBOIXFOZOLDO-UHFFFAOYSA-N

>  <distance_score>  (61) 
1.608002

>  <original ID>  (61) 
FMJBOIXFOZOLDO-UHFFFAOYSA-N

>  <HIPPO Compound ID>  (61) 
18302

>  <exports>  (61) 
['/opt/xchem-fragalysis-2/maxwin/BulkDock/OUTPUTS/RdRp_knitwork_primer_grip_n_pocket_pure_fragalysis.sdf']

>  <fragmenstein_mode>  (61) 
expansion

>  <scratch_subdir>  (61) 
/opt/xchem-fragalysis-2/maxwin/BulkDock/SCRATCH/217965/C67018-P129

>  <ref_pdb>  (61) 
d0160a

>  <ref_mols>  (61) 
d0160a,d0191a

>  <original SMILES>  (61) 
Fc1cnccc1NCc1ccn[nH]1

>  <alias>  (61) 
None

>  <tags>  (61) 
['DF curated INTERESTING', 'Primer grip/N-pocket merge', 'Fragmenstein pure merge', 'Knitwork pure merge', 'Fragmenstein placed', 'Green Site/RNA tunnel merge', 'acceptable']

>  <fragmenstein_outcome>  (61) 
acceptable

>  <csv_name>  (61) 
green_site_rna_tunnel_fstein_bulkdock_input_split1000_batch000.csv

>  <HIPPO Pose ID>  (61) 
67018

>  <SLURM_JOB_NAME>  (61) 
BulkDock.place:Flavi_NS5_RdRp:green_site_rna_tunnel_fstein_bulkdock_input_split1000_batch000

>  <fragmenstein_runtime>  (61) 
1.929091

>  <fragmenstein_error>  (61) 
None

>  <SLURM_JOB_ID>  (61) 
217965

>  <inchikey>  (61) 
FMJBOIXFOZOLDO-UHFFFAOYSA-N

$$$$
PZJPOAHREUQCOG-UHFFFAOYSA-N
     RDKit          3D

 17 18  0  0  0  0  0  0  0  0999 V2000
  -17.1617  -44.5349  -22.3239 C   0  0  0  0  0  0  0  0  0  0  0  0
  -16.5340  -43.3262  -22.7444 O   0  0  0  0  0  0  0  0  0  0  0  0
  -15.4712  -42.9549  -21.9817 C   0  0  0  0  0  0  0  0  0  0  0  0
  -15.0833  -43.5769  -20.9980 O   0  0  0  0  0  0  0  0  0  0  0  0
  -14.9222  -41.6883  -22.4091 C   0  0  0  0  0  0  0  0  0  0  0  0
  -14.0905  -40.9895  -21.5494 N   0  0  0  0  0  0  0  0  0  0  0  0
  -13.8264  -39.7338  -22.0257 C   0  0  0  0  0  0  0  0  0  0  0  0
  -13.1093  -38.7082  -21.1938 C   0  0  0  0  0  0  0  0  0  0  0  0
  -13.9657  -37.4519  -21.0227 C   0  0  0  0  0  0  0  0  0  0  0  0
  -11.7483  -38.3504  -21.7847 C   0  0  0  0  0  0  0  0  0  0  0  0
  -14.3615  -39.6861  -23.2961 C   0  0  0  0  0  0  0  0  0  0  0  0
  -15.0281  -40.9138  -23.5585 C   0  0  0  0  0  0  0  0  0  0  0  0
  -15.6652  -41.1938  -24.8452 C   0  0  0  0  0  0  0  0  0  0  0  0
  -16.0966  -40.2489  -25.8074 C   0  0  0  0  0  0  0  0  0  0  0  0
  -16.6096  -40.8263  -26.9037 N   0  0  0  0  0  0  0  0  0  0  0  0
  -16.4124  -42.1352  -26.6756 N   0  0  0  0  0  0  0  0  0  0  0  0
  -15.9123  -42.4070  -25.4376 C   0  0  0  0  0  0  0  0  0  0  0  0
  1  2  1  0
  2  3  1  0
  3  4  2  0
  3  5  1  0
  5  6  1  0
  6  7  1  0
  7  8  1  0
  8  9  1  0
  8 10  1  0
  7 11  2  0
 11 12  1  0
 12 13  1  0
 13 14  1  0
 14 15  2  0
 15 16  1  0
 16 17  1  0
 12  5  2  0
 17 13  2  0
M  END
>  <energy_score>  (62) 
-49.289279

>  <name>  (62) 
PZJPOAHREUQCOG-UHFFFAOYSA-N

>  <distance_score>  (62) 
1.91751

>  <original ID>  (62) 
PZJPOAHREUQCOG-UHFFFAOYSA-N

>  <HIPPO Compound ID>  (62) 
11952

>  <exports>  (62) 
['/opt/xchem-fragalysis-2/maxwin/BulkDock/OUTPUTS/RdRp_knitwork_primer_grip_n_pocket_pure_fragalysis.sdf']

>  <fragmenstein_mode>  (62) 
expansion

>  <scratch_subdir>  (62) 
/opt/xchem-fragalysis-2/maxwin/BulkDock/SCRATCH/217912/C67381-P42

>  <ref_pdb>  (62) 
d0472a

>  <ref_mols>  (62) 
d0160a,d0472a

>  <original SMILES>  (62) 
COC(=O)c1[nH]c(C(C)C)cc1-c1cn[nH]c1

>  <alias>  (62) 
None

>  <tags>  (62) 
['DF curated INTERESTING', 'Primer grip/N-pocket merge', 'Fragmenstein pure merge', 'Knitwork pure merge', 'Fragmenstein placed', 'acceptable']

>  <fragmenstein_outcome>  (62) 
acceptable

>  <csv_name>  (62) 
primer_grip_n_pocket_fstein_bulkdock_input_split1000_batch000.csv

>  <HIPPO Pose ID>  (62) 
67381

>  <SLURM_JOB_NAME>  (62) 
BulkDock.place:Flavi_NS5_RdRp:primer_grip_n_pocket_fstein_bulkdock_input_split1000_batch000

>  <fragmenstein_runtime>  (62) 
3.495174

>  <fragmenstein_error>  (62) 
None

>  <SLURM_JOB_ID>  (62) 
217912

>  <inchikey>  (62) 
PZJPOAHREUQCOG-UHFFFAOYSA-N

$$$$
BELNFEYNDRWEIK-UHFFFAOYSA-N
     RDKit          3D

 14 15  0  0  0  0  0  0  0  0999 V2000
  -14.4383  -42.8947  -22.2236 C   0  0  0  0  0  0  0  0  0  0  0  0
  -15.7062  -42.9447  -23.0208 C   0  0  0  0  0  0  0  0  0  0  0  0
  -16.6365  -43.9185  -22.6533 C   0  0  0  0  0  0  0  0  0  0  0  0
  -17.8232  -44.1130  -23.2560 N   0  0  0  0  0  0  0  0  0  0  0  0
  -18.1036  -43.2863  -24.2767 C   0  0  0  0  0  0  0  0  0  0  0  0
  -17.2422  -42.3003  -24.7372 C   0  0  0  0  0  0  0  0  0  0  0  0
  -15.9938  -42.1232  -24.1325 C   0  0  0  0  0  0  0  0  0  0  0  0
  -15.1197  -41.0943  -24.5059 N   0  0  0  0  0  0  0  0  0  0  0  0
  -15.2857  -40.3152  -25.7423 C   0  0  0  0  0  0  0  0  0  0  0  0
  -16.3620  -39.2674  -25.7650 C   0  0  0  0  0  0  0  0  0  0  0  0
  -17.2268  -38.9360  -26.7935 C   0  0  0  0  0  0  0  0  0  0  0  0
  -18.1283  -37.9146  -26.5370 N   0  0  0  0  0  0  0  0  0  0  0  0
  -17.9024  -37.4599  -25.3217 C   0  0  0  0  0  0  0  0  0  0  0  0
  -16.6527  -38.2267  -24.4326 S   0  0  0  0  0  0  0  0  0  0  0  0
  1  2  1  0
  2  3  2  0
  3  4  1  0
  4  5  2  0
  5  6  1  0
  6  7  2  0
  7  8  1  0
  8  9  1  0
  9 10  1  0
 10 11  2  0
 11 12  1  0
 12 13  2  0
 13 14  1  0
  7  2  1  0
 14 10  1  0
M  END
>  <energy_score>  (63) 
-70.643644

>  <name>  (63) 
BELNFEYNDRWEIK-UHFFFAOYSA-N

>  <distance_score>  (63) 
0.884605

>  <original ID>  (63) 
BELNFEYNDRWEIK-UHFFFAOYSA-N

>  <HIPPO Compound ID>  (63) 
17585

>  <exports>  (63) 
['/opt/xchem-fragalysis-2/maxwin/BulkDock/OUTPUTS/RdRp_knitwork_primer_grip_n_pocket_pure_split1800_batch012_217046.sdf', '/opt/xchem-fragalysis-2/maxwin/BulkDock/OUTPUTS/RdRp_knitwork_primer_grip_n_pocket_pure_fragalysis.sdf']

>  <fragmenstein_mode>  (63) 
expansion

>  <scratch_subdir>  (63) 
/opt/xchem-fragalysis-2/maxwin/BulkDock/SCRATCH/217046/C17585-P42

>  <ref_pdb>  (63) 
d0472a

>  <ref_mols>  (63) 
d0472a,d0615b

>  <original SMILES>  (63) 
Cc1cnccc1NCc1cncs1

>  <alias>  (63) 
None

>  <tags>  (63) 
['DF curated INTERESTING', 'Primer grip/N-pocket merge', 'Knitwork pure merge', 'Fragmenstein placed', 'acceptable']

>  <fragmenstein_outcome>  (63) 
acceptable

>  <csv_name>  (63) 
RdRp_knitwork_primer_grip_n_pocket_pure_split1800_batch012.csv

>  <HIPPO Pose ID>  (63) 
68896

>  <SLURM_JOB_NAME>  (63) 
BulkDock.place:Flavi_NS5_RdRp:RdRp_knitwork_primer_grip_n_pocket_pure_split1800_batch012

>  <fragmenstein_runtime>  (63) 
4.247793

>  <fragmenstein_error>  (63) 
None

>  <SLURM_JOB_ID>  (63) 
217046

>  <inchikey>  (63) 
BELNFEYNDRWEIK-UHFFFAOYSA-N

$$$$
DXWJLJGPVSIGQY-UHFFFAOYSA-N
     RDKit          3D

 15 16  0  0  0  0  0  0  0  0999 V2000
  -15.8711  -45.0903  -20.0631 C   0  0  0  0  0  0  0  0  0  0  0  0
  -15.0905  -44.4621  -21.1044 N   0  0  0  0  0  0  0  0  0  0  0  0
  -15.7469  -43.7513  -22.1243 C   0  0  0  0  0  0  0  0  0  0  0  0
  -17.0377  -44.0375  -22.5389 C   0  0  0  0  0  0  0  0  0  0  0  0
  -17.5566  -43.3320  -23.6094 C   0  0  0  0  0  0  0  0  0  0  0  0
  -16.8961  -42.3824  -24.3079 N   0  0  0  0  0  0  0  0  0  0  0  0
  -15.6426  -42.1008  -23.9352 C   0  0  0  0  0  0  0  0  0  0  0  0
  -14.8933  -41.1433  -24.6211 N   0  0  0  0  0  0  0  0  0  0  0  0
  -15.4348  -40.5813  -25.8569 C   0  0  0  0  0  0  0  0  0  0  0  0
  -16.4287  -39.4574  -25.7789 C   0  0  0  0  0  0  0  0  0  0  0  0
  -17.3562  -39.0772  -26.7343 C   0  0  0  0  0  0  0  0  0  0  0  0
  -18.1349  -37.9699  -26.4364 N   0  0  0  0  0  0  0  0  0  0  0  0
  -17.7629  -37.5111  -25.2592 C   0  0  0  0  0  0  0  0  0  0  0  0
  -16.5107  -38.3692  -24.4574 S   0  0  0  0  0  0  0  0  0  0  0  0
  -15.0498  -42.7834  -22.8687 C   0  0  0  0  0  0  0  0  0  0  0  0
  1  2  1  0
  2  3  1  0
  3  4  2  0
  4  5  1  0
  5  6  2  0
  6  7  1  0
  7  8  1  0
  8  9  1  0
  9 10  1  0
 10 11  2  0
 11 12  1  0
 12 13  2  0
 13 14  1  0
  7 15  2  0
 15  3  1  0
 14 10  1  0
M  END
>  <energy_score>  (64) 
-88.304395

>  <name>  (64) 
DXWJLJGPVSIGQY-UHFFFAOYSA-N

>  <distance_score>  (64) 
1.71992

>  <original ID>  (64) 
DXWJLJGPVSIGQY-UHFFFAOYSA-N

>  <HIPPO Compound ID>  (64) 
17667

>  <exports>  (64) 
['/opt/xchem-fragalysis-2/maxwin/BulkDock/OUTPUTS/RdRp_knitwork_primer_grip_n_pocket_pure_fragalysis.sdf']

>  <fragmenstein_mode>  (64) 
expansion

>  <scratch_subdir>  (64) 
/opt/xchem-fragalysis-2/maxwin/BulkDock/SCRATCH/217914/C68932-P46

>  <ref_pdb>  (64) 
d0472a

>  <ref_mols>  (64) 
d0472a,d0615b

>  <original SMILES>  (64) 
CNc1ccnc(NCc2cncs2)c1

>  <alias>  (64) 
None

>  <tags>  (64) 
['DF curated INTERESTING', 'Primer grip/N-pocket merge', 'Fragmenstein pure merge', 'Thumb Site 2 merge', 'Knitwork pure merge', 'Fragmenstein placed', 'acceptable']

>  <fragmenstein_outcome>  (64) 
acceptable

>  <csv_name>  (64) 
thumb_site_2_fstein_bulkdock_input_split1000_batch000.csv

>  <HIPPO Pose ID>  (64) 
68932

>  <SLURM_JOB_NAME>  (64) 
BulkDock.place:Flavi_NS5_RdRp:thumb_site_2_fstein_bulkdock_input_split1000_batch000

>  <fragmenstein_runtime>  (64) 
2.114656

>  <fragmenstein_error>  (64) 
None

>  <SLURM_JOB_ID>  (64) 
217914

>  <inchikey>  (64) 
DXWJLJGPVSIGQY-UHFFFAOYSA-N

$$$$
AUMLEUREFZMPKP-UHFFFAOYSA-N
     RDKit          3D

 14 15  0  0  0  0  0  0  0  0999 V2000
  -14.7084  -42.7782  -22.4850 N   0  0  0  0  0  0  0  0  0  0  0  0
  -15.8887  -42.9663  -23.2323 C   0  0  0  0  0  0  0  0  0  0  0  0
  -16.8905  -43.8199  -22.7758 C   0  0  0  0  0  0  0  0  0  0  0  0
  -18.0604  -44.0250  -23.4097 N   0  0  0  0  0  0  0  0  0  0  0  0
  -18.2487  -43.3168  -24.5402 C   0  0  0  0  0  0  0  0  0  0  0  0
  -17.3392  -42.4009  -25.0550 C   0  0  0  0  0  0  0  0  0  0  0  0
  -16.1585  -42.1553  -24.3592 C   0  0  0  0  0  0  0  0  0  0  0  0
  -15.1872  -41.2240  -24.7614 N   0  0  0  0  0  0  0  0  0  0  0  0
  -15.3606  -40.3373  -25.9129 C   0  0  0  0  0  0  0  0  0  0  0  0
  -16.4120  -39.2718  -25.8322 C   0  0  0  0  0  0  0  0  0  0  0  0
  -17.3210  -38.8866  -26.8011 C   0  0  0  0  0  0  0  0  0  0  0  0
  -18.1753  -37.8491  -26.4677 N   0  0  0  0  0  0  0  0  0  0  0  0
  -17.8777  -37.4437  -25.2501 C   0  0  0  0  0  0  0  0  0  0  0  0
  -16.6080  -38.2772  -24.4504 S   0  0  0  0  0  0  0  0  0  0  0  0
  1  2  1  0
  2  3  2  0
  3  4  1  0
  4  5  2  0
  5  6  1  0
  6  7  2  0
  7  8  1  0
  8  9  1  0
  9 10  1  0
 10 11  2  0
 11 12  1  0
 12 13  2  0
 13 14  1  0
  7  2  1  0
 14 10  1  0
M  END
>  <energy_score>  (65) 
-69.207822

>  <name>  (65) 
AUMLEUREFZMPKP-UHFFFAOYSA-N

>  <distance_score>  (65) 
0.944995

>  <original ID>  (65) 
AUMLEUREFZMPKP-UHFFFAOYSA-N

>  <HIPPO Compound ID>  (65) 
17958

>  <exports>  (65) 
['/opt/xchem-fragalysis-2/maxwin/BulkDock/OUTPUTS/RdRp_knitwork_primer_grip_n_pocket_pure_split1800_batch012_217046.sdf', '/opt/xchem-fragalysis-2/maxwin/BulkDock/OUTPUTS/RdRp_knitwork_primer_grip_n_pocket_pure_fragalysis.sdf']

>  <fragmenstein_mode>  (65) 
expansion

>  <scratch_subdir>  (65) 
/opt/xchem-fragalysis-2/maxwin/BulkDock/SCRATCH/217046/C17958-P42

>  <ref_pdb>  (65) 
d0472a

>  <ref_mols>  (65) 
d0472a,d0615b

>  <original SMILES>  (65) 
Nc1cnccc1NCc1cncs1

>  <alias>  (65) 
None

>  <tags>  (65) 
['DF curated INTERESTING', 'Primer grip/N-pocket merge', 'Knitwork pure merge', 'Fragmenstein placed', 'acceptable']

>  <fragmenstein_outcome>  (65) 
acceptable

>  <csv_name>  (65) 
RdRp_knitwork_primer_grip_n_pocket_pure_split1800_batch012.csv

>  <HIPPO Pose ID>  (65) 
68971

>  <SLURM_JOB_NAME>  (65) 
BulkDock.place:Flavi_NS5_RdRp:RdRp_knitwork_primer_grip_n_pocket_pure_split1800_batch012

>  <fragmenstein_runtime>  (65) 
1.598128

>  <fragmenstein_error>  (65) 
None

>  <SLURM_JOB_ID>  (65) 
217046

>  <inchikey>  (65) 
AUMLEUREFZMPKP-UHFFFAOYSA-N

$$$$
AUMLEUREFZMPKP-UHFFFAOYSA-N
     RDKit          3D

 14 15  0  0  0  0  0  0  0  0999 V2000
  -14.6951  -42.3156  -21.9326 N   0  0  0  0  0  0  0  0  0  0  0  0
  -15.7270  -42.7413  -22.7900 C   0  0  0  0  0  0  0  0  0  0  0  0
  -16.6905  -43.6391  -22.3351 C   0  0  0  0  0  0  0  0  0  0  0  0
  -17.7344  -44.0619  -23.0672 N   0  0  0  0  0  0  0  0  0  0  0  0
  -17.8051  -43.5688  -24.3190 C   0  0  0  0  0  0  0  0  0  0  0  0
  -16.9198  -42.6391  -24.8541 C   0  0  0  0  0  0  0  0  0  0  0  0
  -15.9168  -42.1234  -24.0463 C   0  0  0  0  0  0  0  0  0  0  0  0
  -15.0247  -41.1161  -24.4479 N   0  0  0  0  0  0  0  0  0  0  0  0
  -15.2188  -40.3205  -25.6645 C   0  0  0  0  0  0  0  0  0  0  0  0
  -16.3327  -39.3167  -25.6826 C   0  0  0  0  0  0  0  0  0  0  0  0
  -17.1005  -38.9176  -26.7600 C   0  0  0  0  0  0  0  0  0  0  0  0
  -18.0931  -37.9849  -26.5042 N   0  0  0  0  0  0  0  0  0  0  0  0
  -17.9946  -37.6179  -25.2421 C   0  0  0  0  0  0  0  0  0  0  0  0
  -16.7869  -38.4018  -24.3073 S   0  0  0  0  0  0  0  0  0  0  0  0
  1  2  1  0
  2  3  2  0
  3  4  1  0
  4  5  2  0
  5  6  1  0
  6  7  2  0
  7  8  1  0
  8  9  1  0
  9 10  1  0
 10 11  2  0
 11 12  1  0
 12 13  2  0
 13 14  1  0
  7  2  1  0
 14 10  1  0
M  END
>  <energy_score>  (66) 
-68.884706

>  <name>  (66) 
AUMLEUREFZMPKP-UHFFFAOYSA-N

>  <distance_score>  (66) 
0.871366

>  <original ID>  (66) 
AUMLEUREFZMPKP-UHFFFAOYSA-N

>  <HIPPO Compound ID>  (66) 
17958

>  <exports>  (66) 
['/opt/xchem-fragalysis-2/maxwin/BulkDock/OUTPUTS/RdRp_knitwork_primer_grip_n_pocket_pure_split1800_batch012_217046.sdf', '/opt/xchem-fragalysis-2/maxwin/BulkDock/OUTPUTS/RdRp_knitwork_primer_grip_n_pocket_pure_fragalysis.sdf']

>  <fragmenstein_mode>  (66) 
expansion

>  <scratch_subdir>  (66) 
/opt/xchem-fragalysis-2/maxwin/BulkDock/SCRATCH/217046/C17958-P51

>  <ref_pdb>  (66) 
d0615b

>  <ref_mols>  (66) 
d0472a,d0615b

>  <original SMILES>  (66) 
Nc1cnccc1NCc1cncs1

>  <alias>  (66) 
None

>  <tags>  (66) 
['DF curated INTERESTING', 'Primer grip/N-pocket merge', 'Knitwork pure merge', 'Fragmenstein placed', 'acceptable']

>  <fragmenstein_outcome>  (66) 
acceptable

>  <csv_name>  (66) 
RdRp_knitwork_primer_grip_n_pocket_pure_split1800_batch012.csv

>  <HIPPO Pose ID>  (66) 
68972

>  <SLURM_JOB_NAME>  (66) 
BulkDock.place:Flavi_NS5_RdRp:RdRp_knitwork_primer_grip_n_pocket_pure_split1800_batch012

>  <fragmenstein_runtime>  (66) 
1.789537

>  <fragmenstein_error>  (66) 
None

>  <SLURM_JOB_ID>  (66) 
217046

>  <inchikey>  (66) 
AUMLEUREFZMPKP-UHFFFAOYSA-N

$$$$
FJIZSRBICNYNGK-UHFFFAOYSA-N
     RDKit          3D

 14 15  0  0  0  0  0  0  0  0999 V2000
  -16.3978  -46.4739  -21.0360 N   0  0  0  0  0  0  0  0  0  0  0  0
  -15.8545  -45.3369  -20.4469 C   0  0  0  0  0  0  0  0  0  0  0  0
  -15.9081  -44.1101  -21.0950 C   0  0  0  0  0  0  0  0  0  0  0  0
  -15.4613  -42.9733  -20.4261 C   0  0  0  0  0  0  0  0  0  0  0  0
  -15.5572  -41.7021  -21.0300 N   0  0  0  0  0  0  0  0  0  0  0  0
  -14.4667  -41.4244  -21.9887 C   0  0  0  0  0  0  0  0  0  0  0  0
  -13.1515  -41.0405  -21.3702 C   0  0  0  0  0  0  0  0  0  0  0  0
  -12.3035  -41.8411  -20.6387 C   0  0  0  0  0  0  0  0  0  0  0  0
  -11.2821  -41.0375  -20.2293 N   0  0  0  0  0  0  0  0  0  0  0  0
  -11.5216  -39.7942  -20.7408 C   0  0  0  0  0  0  0  0  0  0  0  0
  -12.6318  -39.7637  -21.4462 N   0  0  0  0  0  0  0  0  0  0  0  0
  -14.8998  -43.1309  -19.1618 C   0  0  0  0  0  0  0  0  0  0  0  0
  -14.8222  -44.4040  -18.6269 C   0  0  0  0  0  0  0  0  0  0  0  0
  -15.2815  -45.5113  -19.2436 N   0  0  0  0  0  0  0  0  0  0  0  0
  1  2  1  0
  2  3  2  0
  3  4  1  0
  4  5  1  0
  5  6  1  0
  6  7  1  0
  7  8  2  0
  8  9  1  0
  9 10  1  0
 10 11  2  0
  4 12  2  0
 12 13  1  0
 13 14  2  0
 14  2  1  0
 11  7  1  0
M  END
>  <energy_score>  (67) 
-17.539288

>  <name>  (67) 
FJIZSRBICNYNGK-UHFFFAOYSA-N

>  <distance_score>  (67) 
0.992544

>  <original ID>  (67) 
FJIZSRBICNYNGK-UHFFFAOYSA-N

>  <HIPPO Compound ID>  (67) 
12483

>  <exports>  (67) 
['/opt/xchem-fragalysis-2/maxwin/BulkDock/OUTPUTS/RdRp_knitwork_primer_grip_n_pocket_pure_split1800_batch006_217040.sdf', '/opt/xchem-fragalysis-2/maxwin/BulkDock/OUTPUTS/RdRp_knitwork_primer_grip_n_pocket_pure_fragalysis.sdf']

>  <fragmenstein_mode>  (67) 
expansion

>  <scratch_subdir>  (67) 
/opt/xchem-fragalysis-2/maxwin/BulkDock/SCRATCH/217040/C12483-P42

>  <ref_pdb>  (67) 
d0472a

>  <ref_mols>  (67) 
d0472a,z0875c

>  <original SMILES>  (67) 
Nc1cc(NCc2c[nH]cn2)ccn1

>  <alias>  (67) 
None

>  <tags>  (67) 
['Primer grip/N-pocket merge', 'DF curated YES', 'AC curated INTERESTING', 'Knitwork pure merge', 'Fragmenstein placed', 'acceptable']

>  <fragmenstein_outcome>  (67) 
acceptable

>  <csv_name>  (67) 
RdRp_knitwork_primer_grip_n_pocket_pure_split1800_batch006.csv

>  <HIPPO Pose ID>  (67) 
69503

>  <SLURM_JOB_NAME>  (67) 
BulkDock.place:Flavi_NS5_RdRp:RdRp_knitwork_primer_grip_n_pocket_pure_split1800_batch006

>  <fragmenstein_runtime>  (67) 
1.807809

>  <fragmenstein_error>  (67) 
None

>  <SLURM_JOB_ID>  (67) 
217040

>  <inchikey>  (67) 
FJIZSRBICNYNGK-UHFFFAOYSA-N

$$$$
DJVQSQXCKGQNJE-UHFFFAOYSA-N
     RDKit          3D

 14 15  0  0  0  0  0  0  0  0999 V2000
  -16.2378  -43.8993  -22.7721 C   0  0  0  0  0  0  0  0  0  0  0  0
  -15.7749  -44.0430  -21.3554 C   0  0  0  0  0  0  0  0  0  0  0  0
  -15.6875  -45.3164  -20.7945 C   0  0  0  0  0  0  0  0  0  0  0  0
  -15.2518  -45.5909  -19.5423 N   0  0  0  0  0  0  0  0  0  0  0  0
  -14.9008  -44.5233  -18.8014 C   0  0  0  0  0  0  0  0  0  0  0  0
  -14.9674  -43.2141  -19.2505 C   0  0  0  0  0  0  0  0  0  0  0  0
  -15.4165  -42.9565  -20.5506 C   0  0  0  0  0  0  0  0  0  0  0  0
  -15.4956  -41.6251  -21.0125 N   0  0  0  0  0  0  0  0  0  0  0  0
  -14.4198  -41.2328  -21.9463 C   0  0  0  0  0  0  0  0  0  0  0  0
  -13.0910  -40.9331  -21.3184 C   0  0  0  0  0  0  0  0  0  0  0  0
  -12.2832  -41.7915  -20.6074 C   0  0  0  0  0  0  0  0  0  0  0  0
  -11.2191  -41.0488  -20.1908 N   0  0  0  0  0  0  0  0  0  0  0  0
  -11.3952  -39.7858  -20.6790 C   0  0  0  0  0  0  0  0  0  0  0  0
  -12.5043  -39.6855  -21.3790 N   0  0  0  0  0  0  0  0  0  0  0  0
  1  2  1  0
  2  3  2  0
  3  4  1  0
  4  5  2  0
  5  6  1  0
  6  7  2  0
  7  8  1  0
  8  9  1  0
  9 10  1  0
 10 11  2  0
 11 12  1  0
 12 13  1  0
 13 14  2  0
  7  2  1  0
 14 10  1  0
M  END
>  <energy_score>  (68) 
-27.523897

>  <name>  (68) 
DJVQSQXCKGQNJE-UHFFFAOYSA-N

>  <distance_score>  (68) 
0.997294

>  <original ID>  (68) 
DJVQSQXCKGQNJE-UHFFFAOYSA-N

>  <HIPPO Compound ID>  (68) 
12548

>  <exports>  (68) 
['/opt/xchem-fragalysis-2/maxwin/BulkDock/OUTPUTS/RdRp_knitwork_primer_grip_n_pocket_pure_split1800_batch006_217040.sdf', '/opt/xchem-fragalysis-2/maxwin/BulkDock/OUTPUTS/RdRp_knitwork_primer_grip_n_pocket_pure_fragalysis.sdf']

>  <fragmenstein_mode>  (68) 
expansion

>  <scratch_subdir>  (68) 
/opt/xchem-fragalysis-2/maxwin/BulkDock/SCRATCH/217040/C12548-P42

>  <ref_pdb>  (68) 
d0472a

>  <ref_mols>  (68) 
d0472a,z0875c

>  <original SMILES>  (68) 
Cc1cnccc1NCc1c[nH]cn1

>  <alias>  (68) 
None

>  <tags>  (68) 
['Primer grip/N-pocket merge', 'DF curated YES', 'Knitwork pure merge', 'Fragmenstein placed', 'acceptable']

>  <fragmenstein_outcome>  (68) 
acceptable

>  <csv_name>  (68) 
RdRp_knitwork_primer_grip_n_pocket_pure_split1800_batch006.csv

>  <HIPPO Pose ID>  (68) 
69511

>  <SLURM_JOB_NAME>  (68) 
BulkDock.place:Flavi_NS5_RdRp:RdRp_knitwork_primer_grip_n_pocket_pure_split1800_batch006

>  <fragmenstein_runtime>  (68) 
1.837259

>  <fragmenstein_error>  (68) 
None

>  <SLURM_JOB_ID>  (68) 
217040

>  <inchikey>  (68) 
DJVQSQXCKGQNJE-UHFFFAOYSA-N

$$$$
DVZVZQKDSZQBFI-UHFFFAOYSA-N
     RDKit          3D

 12 13  0  0  0  0  0  0  0  0999 V2000
  -15.6115  -40.5490  -25.9421 N   0  0  0  0  0  0  0  0  0  0  0  0
  -15.5737  -41.2194  -24.9975 C   0  0  0  0  0  0  0  0  0  0  0  0
  -15.6025  -42.0644  -23.8536 C   0  0  0  0  0  0  0  0  0  0  0  0
  -14.8566  -41.9491  -22.7026 C   0  0  0  0  0  0  0  0  0  0  0  0
  -15.2047  -43.0317  -21.8621 C   0  0  0  0  0  0  0  0  0  0  0  0
  -16.1800  -43.7764  -22.4983 C   0  0  0  0  0  0  0  0  0  0  0  0
  -16.8231  -44.9680  -22.0197 C   0  0  0  0  0  0  0  0  0  0  0  0
  -16.3663  -45.6238  -20.9714 N   0  0  0  0  0  0  0  0  0  0  0  0
  -17.1455  -46.7354  -20.7313 C   0  0  0  0  0  0  0  0  0  0  0  0
  -18.1817  -46.9253  -21.6149 C   0  0  0  0  0  0  0  0  0  0  0  0
  -18.2349  -45.6280  -22.7310 S   0  0  0  0  0  0  0  0  0  0  0  0
  -16.4118  -43.1675  -23.7164 N   0  0  0  0  0  0  0  0  0  0  0  0
  1  2  3  0
  2  3  1  0
  3  4  2  0
  4  5  1  0
  5  6  2  0
  6  7  1  0
  7  8  2  0
  8  9  1  0
  9 10  2  0
 10 11  1  0
  6 12  1  0
 12  3  1  0
 11  7  1  0
M  END
>  <energy_score>  (69) 
-60.776808

>  <name>  (69) 
DVZVZQKDSZQBFI-UHFFFAOYSA-N

>  <distance_score>  (69) 
0.902807

>  <original ID>  (69) 
DVZVZQKDSZQBFI-UHFFFAOYSA-N

>  <HIPPO Compound ID>  (69) 
25743

>  <exports>  (69) 
['/opt/xchem-fragalysis-2/maxwin/BulkDock/OUTPUTS/RdRp_knitwork_primer_grip_n_pocket_pure_split1800_batch012_217046.sdf', '/opt/xchem-fragalysis-2/maxwin/BulkDock/OUTPUTS/RdRp_knitwork_primer_grip_n_pocket_pure_fragalysis.sdf']

>  <fragmenstein_mode>  (69) 
expansion

>  <scratch_subdir>  (69) 
/opt/xchem-fragalysis-2/maxwin/BulkDock/SCRATCH/217046/C25743-P42

>  <ref_pdb>  (69) 
d0472a

>  <ref_mols>  (69) 
d0472a,d0615b

>  <original SMILES>  (69) 
N#Cc1ccc(-c2nccs2)[nH]1

>  <alias>  (69) 
None

>  <tags>  (69) 
['DF curated INTERESTING', 'Primer grip/N-pocket merge', 'AC curated INTERESTING', 'Knitwork pure merge', 'Fragmenstein placed', 'acceptable']

>  <fragmenstein_outcome>  (69) 
acceptable

>  <csv_name>  (69) 
RdRp_knitwork_primer_grip_n_pocket_pure_split1800_batch012.csv

>  <HIPPO Pose ID>  (69) 
69558

>  <SLURM_JOB_NAME>  (69) 
BulkDock.place:Flavi_NS5_RdRp:RdRp_knitwork_primer_grip_n_pocket_pure_split1800_batch012

>  <fragmenstein_runtime>  (69) 
1.733986

>  <fragmenstein_error>  (69) 
None

>  <SLURM_JOB_ID>  (69) 
217046

>  <inchikey>  (69) 
DVZVZQKDSZQBFI-UHFFFAOYSA-N

$$$$
HGMRINZTTPAZBD-LBPRGKRZSA-N
     RDKit          3D

 23 24  0  0  0  0  0  0  0  0999 V2000
  -23.9826  -43.9045  -19.6309 C   0  0  0  0  0  0  0  0  0  0  0  0
  -24.3706  -44.0818  -18.1663 C   0  0  0  0  0  0  0  0  0  0  0  0
  -25.8426  -43.6855  -18.0194 C   0  0  0  0  0  0  0  0  0  0  0  0
  -24.1411  -45.5380  -17.6955 C   0  0  0  0  0  0  0  0  0  0  0  0
  -22.8885  -45.7376  -16.8178 C   0  0  2  0  0  0  0  0  0  0  0  0
  -21.6750  -45.5796  -17.6281 N   0  0  0  0  0  0  0  0  0  0  0  0
  -20.9479  -44.3126  -18.0980 C   0  0  0  0  0  0  0  0  0  0  0  0
  -21.1500  -43.1929  -17.8545 O   0  0  0  0  0  0  0  0  0  0  0  0
  -19.9059  -44.6623  -19.0394 C   0  0  0  0  0  0  0  0  0  0  0  0
  -19.8585  -44.4015  -20.3910 C   0  0  0  0  0  0  0  0  0  0  0  0
  -18.6407  -44.6351  -20.9988 N   0  0  0  0  0  0  0  0  0  0  0  0
  -17.7432  -44.9339  -20.0720 C   0  0  0  0  0  0  0  0  0  0  0  0
  -16.2836  -44.7434  -20.2346 C   0  0  0  0  0  0  0  0  0  0  0  0
  -15.7667  -44.2880  -21.4478 C   0  0  0  0  0  0  0  0  0  0  0  0
  -14.4469  -43.8444  -21.4988 C   0  0  0  0  0  0  0  0  0  0  0  0
  -13.6837  -43.8470  -20.3402 C   0  0  0  0  0  0  0  0  0  0  0  0
  -14.2565  -44.3449  -19.1863 C   0  0  0  0  0  0  0  0  0  0  0  0
  -15.5176  -44.8251  -19.1130 N   0  0  0  0  0  0  0  0  0  0  0  0
  -18.4308  -45.3517  -18.5349 S   0  0  0  0  0  0  0  0  0  0  0  0
  -22.9578  -47.0917  -16.0877 C   0  0  0  0  0  0  0  0  0  0  0  0
  -22.0617  -47.1432  -15.0856 F   0  0  0  0  0  0  0  0  0  0  0  0
  -22.7054  -48.1178  -16.9342 F   0  0  0  0  0  0  0  0  0  0  0  0
  -24.1719  -47.3163  -15.5357 F   0  0  0  0  0  0  0  0  0  0  0  0
  1  2  1  0
  2  3  1  0
  2  4  1  0
  5  4  1  6
  5  6  1  0
  6  7  1  0
  7  8  2  0
  7  9  1  0
  9 10  2  0
 10 11  1  0
 11 12  2  0
 12 13  1  0
 13 14  2  0
 14 15  1  0
 15 16  2  0
 16 17  1  0
 17 18  2  0
 12 19  1  0
  5 20  1  0
 20 21  1  0
 20 22  1  0
 20 23  1  0
 19  9  1  0
 18 13  1  0
M  END
>  <energy_score>  (70) 
-40.513359

>  <name>  (70) 
HGMRINZTTPAZBD-LBPRGKRZSA-N

>  <distance_score>  (70) 
0.941505

>  <original ID>  (70) 
HGMRINZTTPAZBD-LBPRGKRZSA-N

>  <HIPPO Compound ID>  (70) 
13884

>  <exports>  (70) 
['/opt/xchem-fragalysis-2/maxwin/BulkDock/OUTPUTS/RdRp_knitwork_primer_grip_n_pocket_pure_split1800_batch003_217037.sdf', '/opt/xchem-fragalysis-2/maxwin/BulkDock/OUTPUTS/RdRp_knitwork_primer_grip_n_pocket_pure_fragalysis.sdf']

>  <fragmenstein_mode>  (70) 
expansion

>  <scratch_subdir>  (70) 
/opt/xchem-fragalysis-2/maxwin/BulkDock/SCRATCH/217037/C13884-P42

>  <ref_pdb>  (70) 
d0472a

>  <ref_mols>  (70) 
d0264a,d0472a

>  <original SMILES>  (70) 
CC(C)C[C@H](NC(=O)c1cnc(-c2ccccn2)s1)C(F)(F)F

>  <alias>  (70) 
None

>  <tags>  (70) 
['Primer grip/N-pocket merge', 'DF curated YES', 'Knitwork pure merge', 'Fragmenstein placed', 'acceptable']

>  <fragmenstein_outcome>  (70) 
acceptable

>  <csv_name>  (70) 
RdRp_knitwork_primer_grip_n_pocket_pure_split1800_batch003.csv

>  <HIPPO Pose ID>  (70) 
73409

>  <SLURM_JOB_NAME>  (70) 
BulkDock.place:Flavi_NS5_RdRp:RdRp_knitwork_primer_grip_n_pocket_pure_split1800_batch003

>  <fragmenstein_runtime>  (70) 
12.097528

>  <fragmenstein_error>  (70) 
None

>  <SLURM_JOB_ID>  (70) 
217037

>  <inchikey>  (70) 
HGMRINZTTPAZBD-LBPRGKRZSA-N

$$$$
TUHJHFXLPDHAOH-FQEVSTJZSA-N
     RDKit          3D

 44 48  0  0  0  0  0  0  0  0999 V2000
  -14.6965  -38.4429  -16.9891 C   0  0  0  0  0  0  0  0  0  0  0  0
  -14.0000  -38.8330  -15.8100 O   0  0  0  0  0  0  0  0  0  0  0  0
  -14.5437  -39.8478  -15.0722 C   0  0  0  0  0  0  0  0  0  0  0  0
  -13.8053  -40.2414  -13.9525 C   0  0  0  0  0  0  0  0  0  0  0  0
  -14.2397  -41.2936  -13.1373 C   0  0  0  0  0  0  0  0  0  0  0  0
  -15.4134  -41.9796  -13.4457 C   0  0  0  0  0  0  0  0  0  0  0  0
  -16.1486  -41.5843  -14.5605 C   0  0  0  0  0  0  0  0  0  0  0  0
  -17.5770  -42.5039  -15.0838 S   0  0  0  0  0  0  0  0  0  0  0  0
  -17.6172  -43.7544  -14.3656 O   0  0  0  0  0  0  0  0  0  0  0  0
  -18.6893  -41.5840  -15.1239 O   0  0  0  0  0  0  0  0  0  0  0  0
  -17.1401  -42.7946  -16.6355 N   0  0  0  0  0  0  0  0  0  0  0  0
  -16.3367  -43.9652  -17.2507 C   0  0  0  0  0  0  0  0  0  0  0  0
  -15.9288  -44.9411  -16.7607 O   0  0  0  0  0  0  0  0  0  0  0  0
  -16.0152  -43.6578  -18.6359 C   0  0  0  0  0  0  0  0  0  0  0  0
  -16.8934  -44.1324  -19.5864 C   0  0  0  0  0  0  0  0  0  0  0  0
  -16.5974  -43.9701  -20.9418 C   0  0  0  0  0  0  0  0  0  0  0  0
  -17.3894  -44.8192  -21.8156 C   0  0  0  0  0  0  0  0  0  0  0  0
  -17.5355  -46.1883  -21.6796 C   0  0  0  0  0  0  0  0  0  0  0  0
  -18.3590  -46.7268  -22.6880 C   0  0  0  0  0  0  0  0  0  0  0  0
  -18.7810  -45.7550  -23.5639 C   0  0  0  0  0  0  0  0  0  0  0  0
  -19.5353  -46.0133  -24.7288 C   0  0  0  0  0  0  0  0  0  0  0  0
  -20.1406  -46.2969  -25.7198 C   0  0  0  0  0  0  0  0  0  0  0  0
  -20.8061  -46.6738  -26.9449 C   0  0  0  0  0  0  0  0  0  0  0  0
  -21.8898  -45.7818  -27.1686 O   0  0  0  0  0  0  0  0  0  0  0  0
  -18.3623  -44.1985  -23.0577 S   0  0  0  0  0  0  0  0  0  0  0  0
  -15.4557  -43.2411  -21.3425 C   0  0  0  0  0  0  0  0  0  0  0  0
  -15.1542  -42.8622  -22.7908 C   0  0  2  0  0  0  0  0  0  0  0  0
  -14.1778  -43.8107  -23.4389 C   0  0  0  0  0  0  0  0  0  0  0  0
  -14.7464  -41.3867  -22.8902 C   0  0  0  0  0  0  0  0  0  0  0  0
  -13.8619  -40.6223  -22.1417 C   0  0  0  0  0  0  0  0  0  0  0  0
  -13.8501  -39.3707  -22.6670 N   0  0  0  0  0  0  0  0  0  0  0  0
  -14.5977  -39.2504  -23.7557 N   0  0  0  0  0  0  0  0  0  0  0  0
  -15.1440  -40.4645  -23.9312 C   0  0  0  0  0  0  0  0  0  0  0  0
  -15.9988  -40.7044  -25.0892 C   0  0  0  0  0  0  0  0  0  0  0  0
  -17.2918  -41.1960  -24.9385 C   0  0  0  0  0  0  0  0  0  0  0  0
  -18.0505  -41.4271  -26.0737 C   0  0  0  0  0  0  0  0  0  0  0  0
  -17.6248  -41.1806  -27.3300 N   0  0  0  0  0  0  0  0  0  0  0  0
  -16.3751  -40.6734  -27.4459 C   0  0  0  0  0  0  0  0  0  0  0  0
  -15.5377  -40.4175  -26.3717 C   0  0  0  0  0  0  0  0  0  0  0  0
  -14.5111  -42.9594  -20.3393 C   0  0  0  0  0  0  0  0  0  0  0  0
  -14.7981  -43.0820  -18.9863 C   0  0  0  0  0  0  0  0  0  0  0  0
  -13.9666  -42.6743  -17.9839 O   0  0  0  0  0  0  0  0  0  0  0  0
  -12.8370  -41.8858  -18.3576 C   0  0  0  0  0  0  0  0  0  0  0  0
  -15.7341  -40.5058  -15.3591 C   0  0  0  0  0  0  0  0  0  0  0  0
  1  2  1  0
  2  3  1  0
  3  4  2  0
  4  5  1  0
  5  6  2  0
  6  7  1  0
  7  8  1  0
  8  9  2  0
  8 10  2  0
  8 11  1  0
 11 12  1  0
 12 13  2  0
 12 14  1  0
 14 15  2  0
 15 16  1  0
 16 17  1  0
 17 18  2  0
 18 19  1  0
 19 20  2  0
 20 21  1  0
 21 22  3  0
 22 23  1  0
 23 24  1  0
 20 25  1  0
 16 26  2  0
 26 27  1  0
 27 28  1  1
 27 29  1  0
 29 30  2  0
 30 31  1  0
 31 32  1  0
 32 33  2  0
 33 34  1  0
 34 35  2  0
 35 36  1  0
 36 37  2  0
 37 38  1  0
 38 39  2  0
 26 40  1  0
 40 41  2  0
 41 42  1  0
 42 43  1  0
  7 44  2  0
 44  3  1  0
 41 14  1  0
 25 17  1  0
 33 29  1  0
 39 34  1  0
M  END
>  <energy_score>  (71) 
-96.988308

>  <name>  (71) 
TUHJHFXLPDHAOH-FQEVSTJZSA-N

>  <distance_score>  (71) 
0.740139

>  <original ID>  (71) 
TUHJHFXLPDHAOH-FQEVSTJZSA-N

>  <HIPPO Compound ID>  (71) 
67390

>  <exports>  (71) 
['/opt/xchem-fragalysis-2/maxwin/BulkDock/OUTPUTS/primer_grip_n_pocket_fstein_bulkdock_input_split1000_batch000_217912.sdf', '/opt/xchem-fragalysis-2/maxwin/BulkDock/OUTPUTS/primer_grip_n_pocket_fstein_bulkdock_input_split1000_batch000_217912_fragalysis.sdf']

>  <fragmenstein_mode>  (71) 
expansion

>  <scratch_subdir>  (71) 
/opt/xchem-fragalysis-2/maxwin/BulkDock/SCRATCH/217912/C67390-P12

>  <ref_pdb>  (71) 
d0160a

>  <ref_mols>  (71) 
d0160a,5i3p-a,5k5m-a

>  <original SMILES>  (71) 
COc1cccc(S(=O)(=O)NC(=O)c2cc(-c3ccc(C#CCO)s3)c([C@H](C)c3c[nH]nc3-c3ccncc3)cc2OC)c1

>  <alias>  (71) 
None

>  <tags>  (71) 
['Primer grip/N-pocket merge', 'Fragmenstein pure merge', 'DF curated YES', 'Fragmenstein placed', 'acceptable']

>  <fragmenstein_outcome>  (71) 
acceptable

>  <csv_name>  (71) 
primer_grip_n_pocket_fstein_bulkdock_input_split1000_batch000.csv

>  <HIPPO Pose ID>  (71) 
77387

>  <SLURM_JOB_NAME>  (71) 
BulkDock.place:Flavi_NS5_RdRp:primer_grip_n_pocket_fstein_bulkdock_input_split1000_batch000

>  <fragmenstein_runtime>  (71) 
16.078365

>  <fragmenstein_error>  (71) 
None

>  <SLURM_JOB_ID>  (71) 
217912

>  <inchikey>  (71) 
TUHJHFXLPDHAOH-FQEVSTJZSA-N

$$$$
PXZGBQYNYITACE-KRWDZBQOSA-N
     RDKit          3D

 36 39  0  0  0  0  0  0  0  0999 V2000
  -12.8563  -42.2907  -18.5525 C   0  0  0  0  0  0  0  0  0  0  0  0
  -14.0929  -42.8125  -19.2346 C   0  0  0  0  0  0  0  0  0  0  0  0
  -14.0038  -42.9927  -20.6116 C   0  0  0  0  0  0  0  0  0  0  0  0
  -15.1363  -43.2167  -21.3967 C   0  0  0  0  0  0  0  0  0  0  0  0
  -15.0753  -42.8215  -22.8628 C   0  0  2  0  0  0  0  0  0  0  0  0
  -14.2194  -43.7464  -23.6893 C   0  0  0  0  0  0  0  0  0  0  0  0
  -14.7031  -41.3336  -22.9686 C   0  0  0  0  0  0  0  0  0  0  0  0
  -13.9129  -40.5164  -22.1704 C   0  0  0  0  0  0  0  0  0  0  0  0
  -13.9203  -39.2746  -22.7146 N   0  0  0  0  0  0  0  0  0  0  0  0
  -14.6244  -39.1967  -23.8362 N   0  0  0  0  0  0  0  0  0  0  0  0
  -15.1196  -40.4316  -24.0148 C   0  0  0  0  0  0  0  0  0  0  0  0
  -15.9731  -40.7032  -25.1643 C   0  0  0  0  0  0  0  0  0  0  0  0
  -17.2574  -41.2146  -24.9981 C   0  0  0  0  0  0  0  0  0  0  0  0
  -18.0247  -41.4578  -26.1236 C   0  0  0  0  0  0  0  0  0  0  0  0
  -17.6136  -41.2083  -27.3835 N   0  0  0  0  0  0  0  0  0  0  0  0
  -16.3707  -40.6877  -27.5135 C   0  0  0  0  0  0  0  0  0  0  0  0
  -15.5265  -40.4165  -26.4498 C   0  0  0  0  0  0  0  0  0  0  0  0
  -16.2483  -43.7868  -20.7581 C   0  0  0  0  0  0  0  0  0  0  0  0
  -17.2045  -44.6480  -21.4690 C   0  0  0  0  0  0  0  0  0  0  0  0
  -17.3889  -46.0091  -21.2946 C   0  0  0  0  0  0  0  0  0  0  0  0
  -18.2122  -46.5698  -22.3110 C   0  0  0  0  0  0  0  0  0  0  0  0
  -18.6296  -45.6179  -23.2164 C   0  0  0  0  0  0  0  0  0  0  0  0
  -19.3487  -45.8812  -24.4203 C   0  0  0  0  0  0  0  0  0  0  0  0
  -19.9791  -46.1473  -25.4068 C   0  0  0  0  0  0  0  0  0  0  0  0
  -20.7818  -46.5173  -26.5673 C   0  0  0  0  0  0  0  0  0  0  0  0
  -22.0359  -45.8419  -26.5221 O   0  0  0  0  0  0  0  0  0  0  0  0
  -18.2690  -44.0522  -22.6653 S   0  0  0  0  0  0  0  0  0  0  0  0
  -16.3261  -43.7092  -19.3543 C   0  0  0  0  0  0  0  0  0  0  0  0
  -15.3154  -43.0827  -18.5967 C   0  0  0  0  0  0  0  0  0  0  0  0
  -15.4574  -42.7964  -17.1218 C   0  0  0  0  0  0  0  0  0  0  0  0
  -14.4746  -42.6182  -16.5186 O   0  0  0  0  0  0  0  0  0  0  0  0
  -16.9305  -42.8920  -16.6381 N   0  0  0  0  0  0  0  0  0  0  0  0
  -17.5526  -42.8812  -15.1311 S   0  0  0  0  0  0  0  0  0  0  0  0
  -16.5221  -41.7179  -14.2588 C   0  0  0  0  0  0  0  0  0  0  0  0
  -17.3388  -44.2069  -14.5979 O   0  0  0  0  0  0  0  0  0  0  0  0
  -18.8776  -42.3209  -15.2582 O   0  0  0  0  0  0  0  0  0  0  0  0
  1  2  1  0
  2  3  2  0
  3  4  1  0
  4  5  1  0
  5  6  1  6
  5  7  1  0
  7  8  2  0
  8  9  1  0
  9 10  1  0
 10 11  2  0
 11 12  1  0
 12 13  2  0
 13 14  1  0
 14 15  2  0
 15 16  1  0
 16 17  2  0
  4 18  2  0
 18 19  1  0
 19 20  2  0
 20 21  1  0
 21 22  2  0
 22 23  1  0
 23 24  3  0
 24 25  1  0
 25 26  1  0
 22 27  1  0
 18 28  1  0
 28 29  2  0
 29 30  1  0
 30 31  2  0
 30 32  1  0
 32 33  1  0
 33 34  1  0
 33 35  2  0
 33 36  2  0
 29  2  1  0
 11  7  1  0
 17 12  1  0
 27 19  1  0
M  END
>  <energy_score>  (72) 
-130.76053

>  <name>  (72) 
PXZGBQYNYITACE-KRWDZBQOSA-N

>  <distance_score>  (72) 
0.736818

>  <original ID>  (72) 
PXZGBQYNYITACE-KRWDZBQOSA-N

>  <HIPPO Compound ID>  (72) 
67398

>  <exports>  (72) 
['/opt/xchem-fragalysis-2/maxwin/BulkDock/OUTPUTS/primer_grip_n_pocket_fstein_bulkdock_input_split1000_batch000_217912.sdf', '/opt/xchem-fragalysis-2/maxwin/BulkDock/OUTPUTS/primer_grip_n_pocket_fstein_bulkdock_input_split1000_batch000_217912_fragalysis.sdf']

>  <fragmenstein_mode>  (72) 
expansion

>  <scratch_subdir>  (72) 
/opt/xchem-fragalysis-2/maxwin/BulkDock/SCRATCH/217912/C67398-P12

>  <ref_pdb>  (72) 
d0160a

>  <ref_mols>  (72) 
d0160a,5hmz-a

>  <original SMILES>  (72) 
Cc1cc([C@H](C)c2c[nH]nc2-c2ccncc2)c(-c2ccc(C#CCO)s2)cc1C(=O)NS(C)(=O)=O

>  <alias>  (72) 
None

>  <tags>  (72) 
['Primer grip/N-pocket merge', 'Fragmenstein pure merge', 'DF curated YES', 'Fragmenstein placed', 'acceptable']

>  <fragmenstein_outcome>  (72) 
acceptable

>  <csv_name>  (72) 
primer_grip_n_pocket_fstein_bulkdock_input_split1000_batch000.csv

>  <HIPPO Pose ID>  (72) 
77478

>  <SLURM_JOB_NAME>  (72) 
BulkDock.place:Flavi_NS5_RdRp:primer_grip_n_pocket_fstein_bulkdock_input_split1000_batch000

>  <fragmenstein_runtime>  (72) 
12.68977

>  <fragmenstein_error>  (72) 
None

>  <SLURM_JOB_ID>  (72) 
217912

>  <inchikey>  (72) 
PXZGBQYNYITACE-KRWDZBQOSA-N

$$$$
LDGQOFRTSKTMJZ-UHFFFAOYSA-N
     RDKit          3D

 24 27  0  0  0  0  0  0  0  0999 V2000
  -17.8915  -37.2289  -24.4243 C   0  0  0  0  0  0  0  0  0  0  0  0
  -18.7282  -37.2046  -25.5276 C   0  0  0  0  0  0  0  0  0  0  0  0
  -18.4919  -37.8822  -26.6746 N   0  0  0  0  0  0  0  0  0  0  0  0
  -17.3548  -38.6267  -26.7003 C   0  0  0  0  0  0  0  0  0  0  0  0
  -16.4501  -38.7252  -25.6453 C   0  0  0  0  0  0  0  0  0  0  0  0
  -15.2282  -39.5942  -25.7304 C   0  0  0  0  0  0  0  0  0  0  0  0
  -15.5022  -40.9307  -25.2218 N   0  0  0  0  0  0  0  0  0  0  0  0
  -16.1311  -41.9095  -25.9408 C   0  0  0  0  0  0  0  0  0  0  0  0
  -16.1506  -43.0353  -25.1574 C   0  0  0  0  0  0  0  0  0  0  0  0
  -15.4928  -42.7453  -23.9377 C   0  0  0  0  0  0  0  0  0  0  0  0
  -15.3464  -43.6802  -22.9743 N   0  0  0  0  0  0  0  0  0  0  0  0
  -14.9044  -43.6909  -21.6324 C   0  0  0  0  0  0  0  0  0  0  0  0
  -13.9462  -42.7912  -21.1672 C   0  0  0  0  0  0  0  0  0  0  0  0
  -13.4287  -42.8998  -19.8781 C   0  0  0  0  0  0  0  0  0  0  0  0
  -13.8960  -43.9093  -19.0623 C   0  0  0  0  0  0  0  0  0  0  0  0
  -14.8393  -44.7934  -19.4333 N   0  0  0  0  0  0  0  0  0  0  0  0
  -15.3665  -44.6411  -20.6873 C   0  0  0  0  0  0  0  0  0  0  0  0
  -16.4112  -45.5590  -21.0151 N   0  0  0  0  0  0  0  0  0  0  0  0
  -16.5361  -46.8227  -20.4634 C   0  0  0  0  0  0  0  0  0  0  0  0
  -17.4710  -47.5175  -21.1929 C   0  0  0  0  0  0  0  0  0  0  0  0
  -18.0792  -46.6091  -22.0808 C   0  0  0  0  0  0  0  0  0  0  0  0
  -17.4488  -45.4000  -21.9144 C   0  0  0  0  0  0  0  0  0  0  0  0
  -15.1443  -41.4174  -23.9824 C   0  0  0  0  0  0  0  0  0  0  0  0
  -16.7407  -38.0058  -24.4846 C   0  0  0  0  0  0  0  0  0  0  0  0
  1  2  2  0
  2  3  1  0
  3  4  2  0
  4  5  1  0
  5  6  1  0
  6  7  1  0
  7  8  1  0
  8  9  2  0
  9 10  1  0
 10 11  1  0
 11 12  1  0
 12 13  2  0
 13 14  1  0
 14 15  2  0
 15 16  1  0
 16 17  2  0
 17 18  1  0
 18 19  1  0
 19 20  2  0
 20 21  1  0
 21 22  2  0
 10 23  2  0
  5 24  2  0
 24  1  1  0
 23  7  1  0
 17 12  1  0
 22 18  1  0
M  END
>  <energy_score>  (73) 
-26.363773

>  <name>  (73) 
LDGQOFRTSKTMJZ-UHFFFAOYSA-N

>  <distance_score>  (73) 
0.524969

>  <original ID>  (73) 
LDGQOFRTSKTMJZ-UHFFFAOYSA-N

>  <HIPPO Compound ID>  (73) 
67405

>  <exports>  (73) 
['/opt/xchem-fragalysis-2/maxwin/BulkDock/OUTPUTS/primer_grip_n_pocket_fstein_bulkdock_input_split1000_batch000_217912.sdf', '/opt/xchem-fragalysis-2/maxwin/BulkDock/OUTPUTS/primer_grip_n_pocket_fstein_bulkdock_input_split1000_batch000_217912_fragalysis.sdf']

>  <fragmenstein_mode>  (73) 
expansion

>  <scratch_subdir>  (73) 
/opt/xchem-fragalysis-2/maxwin/BulkDock/SCRATCH/217912/C67405-P42

>  <ref_pdb>  (73) 
d0472a

>  <ref_mols>  (73) 
d0191a,d0472a

>  <original SMILES>  (73) 
c1cncc(Cn2ccc(Nc3cccnc3-n3cccc3)c2)c1

>  <alias>  (73) 
None

>  <tags>  (73) 
['DF curated INTERESTING', 'Primer grip/N-pocket merge', 'Fragmenstein pure merge', 'Fragmenstein placed', 'acceptable']

>  <fragmenstein_outcome>  (73) 
acceptable

>  <csv_name>  (73) 
primer_grip_n_pocket_fstein_bulkdock_input_split1000_batch000.csv

>  <HIPPO Pose ID>  (73) 
77546

>  <SLURM_JOB_NAME>  (73) 
BulkDock.place:Flavi_NS5_RdRp:primer_grip_n_pocket_fstein_bulkdock_input_split1000_batch000

>  <fragmenstein_runtime>  (73) 
4.002896

>  <fragmenstein_error>  (73) 
None

>  <SLURM_JOB_ID>  (73) 
217912

>  <inchikey>  (73) 
LDGQOFRTSKTMJZ-UHFFFAOYSA-N

$$$$
FRJYLRUVCPPIIC-UHFFFAOYSA-N
     RDKit          3D

 20 22  0  0  0  0  0  0  0  0999 V2000
  -13.7962  -44.1987  -20.6883 N   0  0  0  0  0  0  0  0  0  0  0  0
  -13.4133  -43.1330  -20.9600 C   0  0  0  0  0  0  0  0  0  0  0  0
  -13.0186  -41.7737  -21.1914 C   0  0  0  0  0  0  0  0  0  0  0  0
  -12.0474  -41.2330  -20.3639 N   0  0  0  0  0  0  0  0  0  0  0  0
  -11.8923  -39.9960  -20.7549 C   0  0  0  0  0  0  0  0  0  0  0  0
  -12.7165  -39.7088  -21.7972 N   0  0  0  0  0  0  0  0  0  0  0  0
  -13.4374  -40.8386  -22.1347 C   0  0  0  0  0  0  0  0  0  0  0  0
  -14.2516  -40.7372  -23.2284 N   0  0  0  0  0  0  0  0  0  0  0  0
  -15.1013  -41.6387  -23.7981 C   0  0  0  0  0  0  0  0  0  0  0  0
  -15.6771  -42.8019  -23.3261 C   0  0  0  0  0  0  0  0  0  0  0  0
  -16.4818  -43.3629  -24.3428 C   0  0  0  0  0  0  0  0  0  0  0  0
  -16.4100  -42.5206  -25.4203 C   0  0  0  0  0  0  0  0  0  0  0  0
  -15.6058  -41.4534  -25.0820 N   0  0  0  0  0  0  0  0  0  0  0  0
  -15.3657  -40.3433  -26.0042 C   0  0  0  0  0  0  0  0  0  0  0  0
  -16.4534  -39.3064  -25.9112 C   0  0  0  0  0  0  0  0  0  0  0  0
  -16.6506  -38.5261  -24.7665 C   0  0  0  0  0  0  0  0  0  0  0  0
  -17.6669  -37.5790  -24.7394 C   0  0  0  0  0  0  0  0  0  0  0  0
  -18.4603  -37.4469  -25.8632 C   0  0  0  0  0  0  0  0  0  0  0  0
  -18.3232  -38.1833  -26.9834 N   0  0  0  0  0  0  0  0  0  0  0  0
  -17.3156  -39.0900  -26.9838 C   0  0  0  0  0  0  0  0  0  0  0  0
  1  2  3  0
  2  3  1  0
  3  4  1  0
  4  5  2  0
  5  6  1  0
  6  7  1  0
  7  8  1  0
  8  9  1  0
  9 10  2  0
 10 11  1  0
 11 12  2  0
 12 13  1  0
 13 14  1  0
 14 15  1  0
 15 16  2  0
 16 17  1  0
 17 18  2  0
 18 19  1  0
 19 20  2  0
  7  3  2  0
 13  9  1  0
 20 15  1  0
M  END
>  <energy_score>  (74) 
-25.940003

>  <name>  (74) 
FRJYLRUVCPPIIC-UHFFFAOYSA-N

>  <distance_score>  (74) 
0.539675

>  <original ID>  (74) 
FRJYLRUVCPPIIC-UHFFFAOYSA-N

>  <HIPPO Compound ID>  (74) 
67410

>  <exports>  (74) 
['/opt/xchem-fragalysis-2/maxwin/BulkDock/OUTPUTS/primer_grip_n_pocket_fstein_bulkdock_input_split1000_batch000_217912.sdf', '/opt/xchem-fragalysis-2/maxwin/BulkDock/OUTPUTS/primer_grip_n_pocket_fstein_bulkdock_input_split1000_batch000_217912_fragalysis.sdf']

>  <fragmenstein_mode>  (74) 
expansion

>  <scratch_subdir>  (74) 
/opt/xchem-fragalysis-2/maxwin/BulkDock/SCRATCH/217912/C67410-P19

>  <ref_pdb>  (74) 
d0191a

>  <ref_mols>  (74) 
d0191a,z0875c

>  <original SMILES>  (74) 
N#Cc1nc[nH]c1Nc1cccn1Cc1cccnc1

>  <alias>  (74) 
None

>  <tags>  (74) 
['Primer grip/N-pocket merge', 'Fragmenstein pure merge', 'DF curated YES', 'Fragmenstein placed', 'JA curated YES', 'acceptable']

>  <fragmenstein_outcome>  (74) 
acceptable

>  <csv_name>  (74) 
primer_grip_n_pocket_fstein_bulkdock_input_split1000_batch000.csv

>  <HIPPO Pose ID>  (74) 
77562

>  <SLURM_JOB_NAME>  (74) 
BulkDock.place:Flavi_NS5_RdRp:primer_grip_n_pocket_fstein_bulkdock_input_split1000_batch000

>  <fragmenstein_runtime>  (74) 
2.739915

>  <fragmenstein_error>  (74) 
None

>  <SLURM_JOB_ID>  (74) 
217912

>  <inchikey>  (74) 
FRJYLRUVCPPIIC-UHFFFAOYSA-N

$$$$
FAQQMENBAAMZPE-FQEVSTJZSA-N
     RDKit          3D

 32 35  0  0  0  0  0  0  0  0999 V2000
  -14.5803  -69.3453  -22.8032 C   0  0  0  0  0  0  0  0  0  0  0  0
  -15.1039  -69.4672  -21.3872 C   0  0  0  0  0  0  0  0  0  0  0  0
  -13.8238  -69.7638  -20.1769 S   0  0  0  0  0  0  0  0  0  0  0  0
  -12.9009  -68.6579  -20.1895 O   0  0  0  0  0  0  0  0  0  0  0  0
  -14.4505  -70.2003  -18.9432 O   0  0  0  0  0  0  0  0  0  0  0  0
  -13.0659  -71.1178  -20.7864 N   0  0  0  0  0  0  0  0  0  0  0  0
  -11.7340  -70.9716  -21.3806 C   0  0  0  0  0  0  0  0  0  0  0  0
  -10.5771  -71.1406  -20.4218 C   0  0  0  0  0  0  0  0  0  0  0  0
  -10.7459  -71.5221  -19.0684 C   0  0  0  0  0  0  0  0  0  0  0  0
   -9.6473  -71.7302  -18.2292 C   0  0  0  0  0  0  0  0  0  0  0  0
   -8.3940  -71.5488  -18.7632 C   0  0  0  0  0  0  0  0  0  0  0  0
   -8.2139  -71.1643  -20.0679 C   0  0  0  0  0  0  0  0  0  0  0  0
   -9.2758  -70.9491  -20.9183 C   0  0  0  0  0  0  0  0  0  0  0  0
   -6.9045  -71.0510  -20.3998 O   0  0  0  0  0  0  0  0  0  0  0  0
   -6.2651  -71.3930  -19.1467 C   0  0  1  0  0  0  0  0  0  0  0  0
   -5.4485  -70.3173  -18.6761 O   0  0  0  0  0  0  0  0  0  0  0  0
   -4.2932  -70.2274  -19.3937 C   0  0  0  0  0  0  0  0  0  0  0  0
   -4.1538  -69.1607  -20.2710 C   0  0  0  0  0  0  0  0  0  0  0  0
   -2.9267  -68.9044  -20.8719 C   0  0  0  0  0  0  0  0  0  0  0  0
   -1.8478  -69.7318  -20.5754 C   0  0  0  0  0  0  0  0  0  0  0  0
   -0.2425  -69.3095  -21.1815 S   0  0  0  0  0  0  0  0  0  0  0  0
    0.0728  -70.3162  -22.1746 O   0  0  0  0  0  0  0  0  0  0  0  0
   -0.2662  -67.9028  -21.4906 O   0  0  0  0  0  0  0  0  0  0  0  0
    0.7343  -69.5726  -19.8153 N   0  0  0  0  0  0  0  0  0  0  0  0
    0.8830  -68.4024  -18.8965 C   0  0  0  0  0  0  0  0  0  0  0  0
    1.5689  -68.8428  -17.5860 C   0  0  0  0  0  0  0  0  0  0  0  0
    2.8422  -69.5614  -17.7878 N   0  0  0  0  0  0  0  0  0  0  0  0
    2.6356  -70.6962  -18.6989 C   0  0  0  0  0  0  0  0  0  0  0  0
    2.0271  -70.2655  -20.0452 C   0  0  0  0  0  0  0  0  0  0  0  0
   -1.9975  -70.8440  -19.7439 C   0  0  0  0  0  0  0  0  0  0  0  0
   -3.2274  -71.0845  -19.1386 C   0  0  0  0  0  0  0  0  0  0  0  0
   -7.2216  -71.7271  -18.1045 O   0  0  0  0  0  0  0  0  0  0  0  0
  1  2  1  0
  2  3  1  0
  3  4  2  0
  3  5  2  0
  3  6  1  0
  6  7  1  0
  7  8  1  0
  8  9  2  0
  9 10  1  0
 10 11  2  0
 11 12  1  0
 12 13  2  0
 12 14  1  0
 14 15  1  0
 15 16  1  1
 16 17  1  0
 17 18  2  0
 18 19  1  0
 19 20  2  0
 20 21  1  0
 21 22  2  0
 21 23  2  0
 21 24  1  0
 24 25  1  0
 25 26  1  0
 26 27  1  0
 27 28  1  0
 28 29  1  0
 20 30  1  0
 30 31  2  0
 15 32  1  0
 13  8  1  0
 31 17  1  0
 32 11  1  0
 29 24  1  0
M  END
>  <energy_score>  (75) 
-86.265168

>  <name>  (75) 
FAQQMENBAAMZPE-FQEVSTJZSA-N

>  <distance_score>  (75) 
0.6072

>  <original ID>  (75) 
FAQQMENBAAMZPE-FQEVSTJZSA-N

>  <HIPPO Compound ID>  (75) 
68667

>  <exports>  (75) 
['/opt/xchem-fragalysis-2/maxwin/BulkDock/OUTPUTS/thumb_site_2_fstein_bulkdock_input_split1000_batch000_217914.sdf', '/opt/xchem-fragalysis-2/maxwin/BulkDock/OUTPUTS/thumb_site_2_fstein_bulkdock_input_split1000_batch000_217914_fragalysis.sdf']

>  <fragmenstein_mode>  (75) 
expansion

>  <scratch_subdir>  (75) 
/opt/xchem-fragalysis-2/maxwin/BulkDock/SCRATCH/217914/C68667-P17

>  <ref_pdb>  (75) 
d0174a

>  <ref_mols>  (75) 
d0174a,d0210a

>  <original SMILES>  (75) 
CCS(=O)(=O)NCc1ccc2c(c1)O[C@@H](Oc1ccc(S(=O)(=O)N3CCNCC3)cc1)O2

>  <alias>  (75) 
None

>  <tags>  (75) 
['Fragmenstein pure merge', 'Thumb Site 2 merge', 'DF curated YES', 'Fragmenstein placed', 'JA curated YES', 'acceptable']

>  <fragmenstein_outcome>  (75) 
acceptable

>  <csv_name>  (75) 
thumb_site_2_fstein_bulkdock_input_split1000_batch000.csv

>  <HIPPO Pose ID>  (75) 
77701

>  <SLURM_JOB_NAME>  (75) 
BulkDock.place:Flavi_NS5_RdRp:thumb_site_2_fstein_bulkdock_input_split1000_batch000

>  <fragmenstein_runtime>  (75) 
15.31891

>  <fragmenstein_error>  (75) 
None

>  <SLURM_JOB_ID>  (75) 
217914

>  <inchikey>  (75) 
FAQQMENBAAMZPE-FQEVSTJZSA-N

$$$$
SVDVXQUBHCNNMO-UHFFFAOYSA-N
     RDKit          3D

 19 21  0  0  0  0  0  0  0  0999 V2000
  -14.8006  -70.1617  -24.1778 C   0  0  0  0  0  0  0  0  0  0  0  0
  -13.7898  -70.0129  -23.0513 C   0  0  0  0  0  0  0  0  0  0  0  0
  -14.3444  -69.9024  -21.6657 C   0  0  0  0  0  0  0  0  0  0  0  0
  -13.6370  -69.7885  -20.4287 C   0  0  0  0  0  0  0  0  0  0  0  0
  -12.3025  -69.8264  -20.2530 N   0  0  0  0  0  0  0  0  0  0  0  0
  -11.4643  -70.7520  -20.9891 C   0  0  0  0  0  0  0  0  0  0  0  0
  -10.1996  -71.0219  -20.2099 C   0  0  0  0  0  0  0  0  0  0  0  0
  -10.2610  -71.7693  -19.0081 C   0  0  0  0  0  0  0  0  0  0  0  0
   -9.1108  -72.0181  -18.2564 C   0  0  0  0  0  0  0  0  0  0  0  0
   -7.9194  -71.5175  -18.7318 C   0  0  0  0  0  0  0  0  0  0  0  0
   -7.8482  -70.7996  -19.9026 C   0  0  0  0  0  0  0  0  0  0  0  0
   -8.9660  -70.5280  -20.6609 C   0  0  0  0  0  0  0  0  0  0  0  0
   -6.5823  -70.3936  -20.1845 O   0  0  0  0  0  0  0  0  0  0  0  0
   -5.8563  -70.9764  -19.0848 C   0  0  0  0  0  0  0  0  0  0  0  0
   -6.7074  -71.6468  -18.1291 O   0  0  0  0  0  0  0  0  0  0  0  0
  -14.4579  -69.6256  -19.3873 N   0  0  0  0  0  0  0  0  0  0  0  0
  -15.6707  -69.5738  -19.9576 N   0  0  0  0  0  0  0  0  0  0  0  0
  -15.6676  -69.9007  -21.2842 C   0  0  0  0  0  0  0  0  0  0  0  0
  -16.7623  -70.1216  -22.0008 O   0  0  0  0  0  0  0  0  0  0  0  0
  1  2  1  0
  2  3  1  0
  3  4  1  0
  4  5  1  0
  5  6  1  0
  6  7  1  0
  7  8  2  0
  8  9  1  0
  9 10  2  0
 10 11  1  0
 11 12  2  0
 11 13  1  0
 13 14  1  0
 14 15  1  0
  4 16  2  0
 16 17  1  0
 17 18  1  0
 18 19  1  0
 18  3  2  0
 12  7  1  0
 15 10  1  0
M  END
>  <energy_score>  (76) 
-37.286941

>  <name>  (76) 
SVDVXQUBHCNNMO-UHFFFAOYSA-N

>  <distance_score>  (76) 
0.622948

>  <original ID>  (76) 
SVDVXQUBHCNNMO-UHFFFAOYSA-N

>  <HIPPO Compound ID>  (76) 
68673

>  <exports>  (76) 
['/opt/xchem-fragalysis-2/maxwin/BulkDock/OUTPUTS/thumb_site_2_fstein_bulkdock_input_split1000_batch000_217914.sdf', '/opt/xchem-fragalysis-2/maxwin/BulkDock/OUTPUTS/thumb_site_2_fstein_bulkdock_input_split1000_batch000_217914_fragalysis.sdf']

>  <fragmenstein_mode>  (76) 
expansion

>  <scratch_subdir>  (76) 
/opt/xchem-fragalysis-2/maxwin/BulkDock/SCRATCH/217914/C68673-P17

>  <ref_pdb>  (76) 
d0174a

>  <ref_mols>  (76) 
d0174a,d0414a

>  <original SMILES>  (76) 
CCc1c(NCc2ccc3c(c2)OCO3)n[nH]c1O

>  <alias>  (76) 
None

>  <tags>  (76) 
['DF curated INTERESTING', 'Fragmenstein pure merge', 'Thumb Site 2 merge', 'Fragmenstein placed', 'acceptable']

>  <fragmenstein_outcome>  (76) 
acceptable

>  <csv_name>  (76) 
thumb_site_2_fstein_bulkdock_input_split1000_batch000.csv

>  <HIPPO Pose ID>  (76) 
77729

>  <SLURM_JOB_NAME>  (76) 
BulkDock.place:Flavi_NS5_RdRp:thumb_site_2_fstein_bulkdock_input_split1000_batch000

>  <fragmenstein_runtime>  (76) 
1.930167

>  <fragmenstein_error>  (76) 
None

>  <SLURM_JOB_ID>  (76) 
217914

>  <inchikey>  (76) 
SVDVXQUBHCNNMO-UHFFFAOYSA-N

$$$$
PASWEVDTJXEMNV-NSHDSACASA-N
     RDKit          3D

 17 19  0  0  0  0  0  0  0  0999 V2000
  -30.3699  -29.8928  -20.7255 C   0  0  0  0  0  0  0  0  0  0  0  0
  -29.4010  -29.8580  -19.6147 C   0  0  0  0  0  0  0  0  0  0  0  0
  -29.7380  -29.6781  -18.2720 C   0  0  0  0  0  0  0  0  0  0  0  0
  -28.5620  -29.7807  -17.5957 C   0  0  0  0  0  0  0  0  0  0  0  0
  -28.2523  -29.7357  -16.2176 C   0  0  0  0  0  0  0  0  0  0  0  0
  -26.9779  -29.8943  -15.8416 C   0  0  0  0  0  0  0  0  0  0  0  0
  -25.9089  -30.0369  -16.7928 C   0  0  0  0  0  0  0  0  0  0  0  0
  -26.1721  -30.1257  -18.1116 C   0  0  0  0  0  0  0  0  0  0  0  0
  -25.1290  -30.3054  -19.0259 N   0  0  0  0  0  0  0  0  0  0  0  0
  -24.7256  -31.6760  -19.3908 C   0  0  0  0  0  0  0  0  0  0  0  0
  -23.2465  -31.9033  -19.0858 C   0  0  1  0  0  0  0  0  0  0  0  0
  -22.9142  -31.9375  -17.5975 C   0  0  0  0  0  0  0  0  0  0  0  0
  -21.5903  -32.6688  -17.5765 C   0  0  0  0  0  0  0  0  0  0  0  0
  -21.7645  -33.7237  -18.5674 N   0  0  0  0  0  0  0  0  0  0  0  0
  -22.6829  -33.2225  -19.6011 C   0  0  0  0  0  0  0  0  0  0  0  0
  -27.5389  -30.0019  -18.5332 N   0  0  0  0  0  0  0  0  0  0  0  0
  -28.0886  -30.0580  -19.7964 N   0  0  0  0  0  0  0  0  0  0  0  0
  1  2  1  0
  2  3  1  0
  3  4  2  0
  4  5  1  0
  5  6  2  0
  6  7  1  0
  7  8  2  0
  8  9  1  0
  9 10  1  0
 11 10  1  1
 11 12  1  0
 12 13  1  0
 13 14  1  0
 14 15  1  0
  8 16  1  0
 16 17  1  0
 17  2  2  0
 16  4  1  0
 15 11  1  0
M  END
>  <energy_score>  (77) 
-12.918401

>  <name>  (77) 
PASWEVDTJXEMNV-NSHDSACASA-N

>  <distance_score>  (77) 
0.817329

>  <original ID>  (77) 
PASWEVDTJXEMNV-NSHDSACASA-N

>  <HIPPO Compound ID>  (77) 
67990

>  <exports>  (77) 
['/opt/xchem-fragalysis-2/maxwin/BulkDock/OUTPUTS/green_site_rna_tunnel_fstein_bulkdock_input_split1000_batch001_217910.sdf', '/opt/xchem-fragalysis-2/maxwin/BulkDock/OUTPUTS/green_site_rna_tunnel_fstein_bulkdock_input_fragalysis.sdf']

>  <fragmenstein_mode>  (77) 
expansion

>  <scratch_subdir>  (77) 
/opt/xchem-fragalysis-2/maxwin/BulkDock/SCRATCH/217910/C67990-P151

>  <ref_pdb>  (77) 
z0637a

>  <ref_mols>  (77) 
z0496a,z0637a

>  <original SMILES>  (77) 
Cc1cc2cccc(NC[C@H]3CCNC3)n2n1

>  <alias>  (77) 
None

>  <tags>  (77) 
['DF curated INTERESTING', 'Fragmenstein pure merge', 'Fragmenstein placed', 'Green Site/RNA tunnel merge', 'acceptable']

>  <fragmenstein_outcome>  (77) 
acceptable

>  <csv_name>  (77) 
green_site_rna_tunnel_fstein_bulkdock_input_split1000_batch001.csv

>  <HIPPO Pose ID>  (77) 
79512

>  <SLURM_JOB_NAME>  (77) 
BulkDock.place:Flavi_NS5_RdRp:green_site_rna_tunnel_fstein_bulkdock_input_split1000_batch001

>  <fragmenstein_runtime>  (77) 
2.724094

>  <fragmenstein_error>  (77) 
None

>  <SLURM_JOB_ID>  (77) 
217910

>  <inchikey>  (77) 
PASWEVDTJXEMNV-NSHDSACASA-N

$$$$
PRYCZZKOYFDPQN-UHFFFAOYSA-N
     RDKit          3D

 17 19  0  0  0  0  0  0  0  0999 V2000
   -2.4629  -68.6835  -21.4713 C   0  0  0  0  0  0  0  0  0  0  0  0
   -3.4278  -69.5589  -20.7647 C   0  0  0  0  0  0  0  0  0  0  0  0
   -3.9304  -70.8207  -21.1495 C   0  0  0  0  0  0  0  0  0  0  0  0
   -4.8038  -71.1617  -20.1423 C   0  0  0  0  0  0  0  0  0  0  0  0
   -5.6741  -72.3267  -19.8832 C   0  0  0  0  0  0  0  0  0  0  0  0
   -7.0177  -71.9267  -19.5321 N   0  0  0  0  0  0  0  0  0  0  0  0
   -7.8958  -71.3169  -20.4495 N   0  0  0  0  0  0  0  0  0  0  0  0
   -9.0470  -71.0575  -19.7237 C   0  0  0  0  0  0  0  0  0  0  0  0
   -8.9143  -71.3134  -18.4143 C   0  0  0  0  0  0  0  0  0  0  0  0
   -7.5550  -71.8677  -18.2555 C   0  0  0  0  0  0  0  0  0  0  0  0
   -7.0667  -72.2286  -17.2005 O   0  0  0  0  0  0  0  0  0  0  0  0
   -9.9906  -71.2791  -17.4026 C   0  0  0  0  0  0  0  0  0  0  0  0
  -11.3547  -71.3782  -18.0987 C   0  0  0  0  0  0  0  0  0  0  0  0
  -11.4569  -70.4336  -19.3042 C   0  0  0  0  0  0  0  0  0  0  0  0
  -10.3491  -70.6722  -20.3469 C   0  0  0  0  0  0  0  0  0  0  0  0
   -4.7948  -70.1871  -19.1974 O   0  0  0  0  0  0  0  0  0  0  0  0
   -3.9419  -69.1832  -19.5895 N   0  0  0  0  0  0  0  0  0  0  0  0
  1  2  1  0
  2  3  1  0
  3  4  2  0
  4  5  1  0
  5  6  1  0
  6  7  1  0
  7  8  1  0
  8  9  2  0
  9 10  1  0
 10 11  2  0
  9 12  1  0
 12 13  1  0
 13 14  1  0
 14 15  1  0
  4 16  1  0
 16 17  1  0
 17  2  2  0
 10  6  1  0
 15  8  1  0
M  END
>  <energy_score>  (78) 
-37.935655

>  <name>  (78) 
PRYCZZKOYFDPQN-UHFFFAOYSA-N

>  <distance_score>  (78) 
0.912024

>  <original ID>  (78) 
PRYCZZKOYFDPQN-UHFFFAOYSA-N

>  <HIPPO Compound ID>  (78) 
68932

>  <exports>  (78) 
['/opt/xchem-fragalysis-2/maxwin/BulkDock/OUTPUTS/thumb_site_2_fstein_bulkdock_input_split1000_batch000_217914.sdf', '/opt/xchem-fragalysis-2/maxwin/BulkDock/OUTPUTS/thumb_site_2_fstein_bulkdock_input_split1000_batch000_217914_fragalysis.sdf']

>  <fragmenstein_mode>  (78) 
expansion

>  <scratch_subdir>  (78) 
/opt/xchem-fragalysis-2/maxwin/BulkDock/SCRATCH/217914/C68932-P35

>  <ref_pdb>  (78) 
d0379a

>  <ref_mols>  (78) 
d0379a,d0567a

>  <original SMILES>  (78) 
Cc1cc(Cn2[nH]c3c(c2=O)CCCC3)on1

>  <alias>  (78) 
None

>  <tags>  (78) 
['DF curated INTERESTING', 'Fragmenstein pure merge', 'Thumb Site 2 merge', 'Fragmenstein placed', 'acceptable']

>  <fragmenstein_outcome>  (78) 
acceptable

>  <csv_name>  (78) 
thumb_site_2_fstein_bulkdock_input_split1000_batch000.csv

>  <HIPPO Pose ID>  (78) 
80533

>  <SLURM_JOB_NAME>  (78) 
BulkDock.place:Flavi_NS5_RdRp:thumb_site_2_fstein_bulkdock_input_split1000_batch000

>  <fragmenstein_runtime>  (78) 
2.104749

>  <fragmenstein_error>  (78) 
None

>  <SLURM_JOB_ID>  (78) 
217914

>  <inchikey>  (78) 
PRYCZZKOYFDPQN-UHFFFAOYSA-N

$$$$
PRYCZZKOYFDPQN-UHFFFAOYSA-N
     RDKit          3D

 17 19  0  0  0  0  0  0  0  0999 V2000
   -2.4127  -68.3781  -21.1016 C   0  0  0  0  0  0  0  0  0  0  0  0
   -3.4726  -69.2331  -20.5160 C   0  0  0  0  0  0  0  0  0  0  0  0
   -3.7149  -70.6090  -20.7285 C   0  0  0  0  0  0  0  0  0  0  0  0
   -4.8430  -70.8810  -19.9876 C   0  0  0  0  0  0  0  0  0  0  0  0
   -5.6498  -72.1057  -19.7692 C   0  0  0  0  0  0  0  0  0  0  0  0
   -7.0359  -71.8312  -19.4571 N   0  0  0  0  0  0  0  0  0  0  0  0
   -7.9239  -71.2383  -20.3748 N   0  0  0  0  0  0  0  0  0  0  0  0
   -9.1037  -71.0570  -19.6722 C   0  0  0  0  0  0  0  0  0  0  0  0
   -8.9933  -71.3533  -18.3704 C   0  0  0  0  0  0  0  0  0  0  0  0
   -7.6189  -71.8664  -18.2007 C   0  0  0  0  0  0  0  0  0  0  0  0
   -7.1499  -72.2682  -17.1520 O   0  0  0  0  0  0  0  0  0  0  0  0
  -10.0821  -71.3443  -17.3720 C   0  0  0  0  0  0  0  0  0  0  0  0
  -11.4474  -71.3786  -18.0732 C   0  0  0  0  0  0  0  0  0  0  0  0
  -11.5171  -70.4301  -19.2779 C   0  0  0  0  0  0  0  0  0  0  0  0
  -10.3984  -70.6727  -20.3084 C   0  0  0  0  0  0  0  0  0  0  0  0
   -5.2108  -69.7546  -19.3212 O   0  0  0  0  0  0  0  0  0  0  0  0
   -4.3613  -68.7221  -19.6590 N   0  0  0  0  0  0  0  0  0  0  0  0
  1  2  1  0
  2  3  1  0
  3  4  2  0
  4  5  1  0
  5  6  1  0
  6  7  1  0
  7  8  1  0
  8  9  2  0
  9 10  1  0
 10 11  2  0
  9 12  1  0
 12 13  1  0
 13 14  1  0
 14 15  1  0
  4 16  1  0
 16 17  1  0
 17  2  2  0
 10  6  1  0
 15  8  1  0
M  END
>  <energy_score>  (79) 
-37.482937

>  <name>  (79) 
PRYCZZKOYFDPQN-UHFFFAOYSA-N

>  <distance_score>  (79) 
0.889492

>  <original ID>  (79) 
PRYCZZKOYFDPQN-UHFFFAOYSA-N

>  <HIPPO Compound ID>  (79) 
68932

>  <exports>  (79) 
['/opt/xchem-fragalysis-2/maxwin/BulkDock/OUTPUTS/thumb_site_2_fstein_bulkdock_input_split1000_batch000_217914.sdf', '/opt/xchem-fragalysis-2/maxwin/BulkDock/OUTPUTS/thumb_site_2_fstein_bulkdock_input_split1000_batch000_217914_fragalysis.sdf']

>  <fragmenstein_mode>  (79) 
expansion

>  <scratch_subdir>  (79) 
/opt/xchem-fragalysis-2/maxwin/BulkDock/SCRATCH/217914/C68932-P46

>  <ref_pdb>  (79) 
d0567a

>  <ref_mols>  (79) 
d0379a,d0567a

>  <original SMILES>  (79) 
Cc1cc(Cn2[nH]c3c(c2=O)CCCC3)on1

>  <alias>  (79) 
None

>  <tags>  (79) 
['DF curated INTERESTING', 'Fragmenstein pure merge', 'Thumb Site 2 merge', 'Fragmenstein placed', 'acceptable']

>  <fragmenstein_outcome>  (79) 
acceptable

>  <csv_name>  (79) 
thumb_site_2_fstein_bulkdock_input_split1000_batch000.csv

>  <HIPPO Pose ID>  (79) 
80534

>  <SLURM_JOB_NAME>  (79) 
BulkDock.place:Flavi_NS5_RdRp:thumb_site_2_fstein_bulkdock_input_split1000_batch000

>  <fragmenstein_runtime>  (79) 
2.114656

>  <fragmenstein_error>  (79) 
None

>  <SLURM_JOB_ID>  (79) 
217914

>  <inchikey>  (79) 
PRYCZZKOYFDPQN-UHFFFAOYSA-N

$$$$
OBILXVZHRBQCQW-GFCCVEGCSA-N
     RDKit          3D

 19 21  0  0  0  0  0  0  0  0999 V2000
  -11.1260  -70.4279  -21.7339 C   0  0  0  0  0  0  0  0  0  0  0  0
  -10.2623  -71.1633  -20.7333 C   0  0  2  0  0  0  0  0  0  0  0  0
  -10.7482  -71.0199  -19.3009 C   0  0  0  0  0  0  0  0  0  0  0  0
   -9.5496  -71.5229  -18.5133 C   0  0  0  0  0  0  0  0  0  0  0  0
   -8.3663  -71.0544  -19.2828 N   0  0  0  0  0  0  0  0  0  0  0  0
   -7.0513  -72.1129  -19.2458 S   0  0  0  0  0  0  0  0  0  0  0  0
   -6.7050  -72.3331  -17.8610 O   0  0  0  0  0  0  0  0  0  0  0  0
   -7.3233  -73.2100  -20.1441 O   0  0  0  0  0  0  0  0  0  0  0  0
   -5.9005  -71.1322  -19.9392 N   0  0  0  0  0  0  0  0  0  0  0  0
   -5.1778  -70.0123  -19.2733 C   0  0  0  0  0  0  0  0  0  0  0  0
   -4.0522  -70.1582  -20.3270 C   0  0  0  0  0  0  0  0  0  0  0  0
   -2.5563  -69.9333  -19.8965 C   0  0  0  0  0  0  0  0  0  0  0  0
   -1.7968  -68.8953  -20.4649 C   0  0  0  0  0  0  0  0  0  0  0  0
   -0.4804  -68.6433  -20.0722 C   0  0  0  0  0  0  0  0  0  0  0  0
    0.1299  -69.4405  -19.1119 C   0  0  0  0  0  0  0  0  0  0  0  0
   -0.5822  -70.4868  -18.5399 C   0  0  0  0  0  0  0  0  0  0  0  0
   -1.9054  -70.7225  -18.9248 C   0  0  0  0  0  0  0  0  0  0  0  0
   -4.6021  -71.5959  -20.5001 C   0  0  0  0  0  0  0  0  0  0  0  0
   -8.8325  -70.6411  -20.6399 C   0  0  0  0  0  0  0  0  0  0  0  0
  2  1  1  6
  2  3  1  0
  3  4  1  0
  4  5  1  0
  5  6  1  0
  6  7  2  0
  6  8  2  0
  6  9  1  0
  9 10  1  0
 10 11  1  0
 11 12  1  0
 12 13  2  0
 13 14  1  0
 14 15  2  0
 15 16  1  0
 16 17  2  0
 11 18  1  0
  5 19  1  0
 19  2  1  0
 18  9  1  0
 17 12  1  0
M  END
>  <energy_score>  (80) 
-61.315403

>  <name>  (80) 
OBILXVZHRBQCQW-GFCCVEGCSA-N

>  <distance_score>  (80) 
0.914928

>  <original ID>  (80) 
OBILXVZHRBQCQW-GFCCVEGCSA-N

>  <HIPPO Compound ID>  (80) 
68987

>  <exports>  (80) 
['/opt/xchem-fragalysis-2/maxwin/BulkDock/OUTPUTS/thumb_site_2_fstein_bulkdock_input_split1000_batch000_217914.sdf', '/opt/xchem-fragalysis-2/maxwin/BulkDock/OUTPUTS/thumb_site_2_fstein_bulkdock_input_split1000_batch000_217914_fragalysis.sdf']

>  <fragmenstein_mode>  (80) 
expansion

>  <scratch_subdir>  (80) 
/opt/xchem-fragalysis-2/maxwin/BulkDock/SCRATCH/217914/C68987-P44

>  <ref_pdb>  (80) 
d0503a

>  <ref_mols>  (80) 
d0503a,d0644a

>  <original SMILES>  (80) 
C[C@@H]1CCN(S(=O)(=O)N2CC(c3ccccc3)C2)C1

>  <alias>  (80) 
None

>  <tags>  (80) 
['DF curated INTERESTING', 'Fragmenstein pure merge', 'Thumb Site 2 merge', 'Fragmenstein placed', 'acceptable']

>  <fragmenstein_outcome>  (80) 
acceptable

>  <csv_name>  (80) 
thumb_site_2_fstein_bulkdock_input_split1000_batch000.csv

>  <HIPPO Pose ID>  (80) 
80900

>  <SLURM_JOB_NAME>  (80) 
BulkDock.place:Flavi_NS5_RdRp:thumb_site_2_fstein_bulkdock_input_split1000_batch000

>  <fragmenstein_runtime>  (80) 
9.179862

>  <fragmenstein_error>  (80) 
None

>  <SLURM_JOB_ID>  (80) 
217914

>  <inchikey>  (80) 
OBILXVZHRBQCQW-GFCCVEGCSA-N

$$$$
YCYARQWXNBKXND-SNVBAGLBSA-N
     RDKit          3D

 16 17  0  0  0  0  0  0  0  0999 V2000
  -11.9404  -70.1895  -21.9278 C   0  0  0  0  0  0  0  0  0  0  0  0
  -10.7545  -70.5499  -21.0900 C   0  0  0  0  0  0  0  0  0  0  0  0
   -9.4994  -70.7716  -21.6441 C   0  0  0  0  0  0  0  0  0  0  0  0
   -8.4135  -71.1878  -20.9443 N   0  0  0  0  0  0  0  0  0  0  0  0
   -8.5600  -71.4071  -19.6186 C   0  0  0  0  0  0  0  0  0  0  0  0
   -7.4937  -71.9749  -18.8998 N   0  0  0  0  0  0  0  0  0  0  0  0
   -7.5793  -73.4290  -18.8882 C   0  0  0  0  0  0  0  0  0  0  0  0
   -6.1866  -71.3411  -19.0727 C   0  0  0  0  0  0  0  0  0  0  0  0
   -5.2986  -71.8197  -20.2185 C   0  0  1  0  0  0  0  0  0  0  0  0
   -4.0938  -70.9053  -20.3948 C   0  0  0  0  0  0  0  0  0  0  0  0
   -3.0938  -71.7884  -21.1066 C   0  0  0  0  0  0  0  0  0  0  0  0
   -3.3809  -73.1368  -20.7245 O   0  0  0  0  0  0  0  0  0  0  0  0
   -4.6063  -73.1522  -19.9796 C   0  0  0  0  0  0  0  0  0  0  0  0
   -9.7805  -71.1393  -18.9687 C   0  0  0  0  0  0  0  0  0  0  0  0
   -9.9592  -71.2871  -17.2521 Cl  0  0  0  0  0  0  0  0  0  0  0  0
  -10.8807  -70.7154  -19.7126 C   0  0  0  0  0  0  0  0  0  0  0  0
  1  2  1  0
  2  3  2  0
  3  4  1  0
  4  5  2  0
  5  6  1  0
  6  7  1  0
  6  8  1  0
  9  8  1  1
  9 10  1  0
 10 11  1  0
 11 12  1  0
 12 13  1  0
  5 14  1  0
 14 15  1  0
 14 16  2  0
 16  2  1  0
 13  9  1  0
M  END
>  <energy_score>  (81) 
-44.189834

>  <name>  (81) 
YCYARQWXNBKXND-SNVBAGLBSA-N

>  <distance_score>  (81) 
0.882206

>  <original ID>  (81) 
YCYARQWXNBKXND-SNVBAGLBSA-N

>  <HIPPO Compound ID>  (81) 
69057

>  <exports>  (81) 
['/opt/xchem-fragalysis-2/maxwin/BulkDock/OUTPUTS/thumb_site_2_fstein_bulkdock_input_split1000_batch000_217914.sdf', '/opt/xchem-fragalysis-2/maxwin/BulkDock/OUTPUTS/thumb_site_2_fstein_bulkdock_input_split1000_batch000_217914_fragalysis.sdf']

>  <fragmenstein_mode>  (81) 
expansion

>  <scratch_subdir>  (81) 
/opt/xchem-fragalysis-2/maxwin/BulkDock/SCRATCH/217914/C69057-P27

>  <ref_pdb>  (81) 
d0258a

>  <ref_mols>  (81) 
d0258a,d0587a

>  <original SMILES>  (81) 
Cc1cnc(N(C)C[C@H]2CCOC2)c(Cl)c1

>  <alias>  (81) 
None

>  <tags>  (81) 
['DF curated INTERESTING', 'Fragmenstein pure merge', 'Thumb Site 2 merge', 'Fragmenstein placed', 'acceptable']

>  <fragmenstein_outcome>  (81) 
acceptable

>  <csv_name>  (81) 
thumb_site_2_fstein_bulkdock_input_split1000_batch000.csv

>  <HIPPO Pose ID>  (81) 
81055

>  <SLURM_JOB_NAME>  (81) 
BulkDock.place:Flavi_NS5_RdRp:thumb_site_2_fstein_bulkdock_input_split1000_batch000

>  <fragmenstein_runtime>  (81) 
1.514105

>  <fragmenstein_error>  (81) 
None

>  <SLURM_JOB_ID>  (81) 
217914

>  <inchikey>  (81) 
YCYARQWXNBKXND-SNVBAGLBSA-N

$$$$
YCYARQWXNBKXND-SNVBAGLBSA-N
     RDKit          3D

 16 17  0  0  0  0  0  0  0  0999 V2000
  -12.0399  -70.0616  -21.6947 C   0  0  0  0  0  0  0  0  0  0  0  0
  -10.8107  -70.4880  -20.9553 C   0  0  0  0  0  0  0  0  0  0  0  0
   -9.6832  -70.9549  -21.6195 C   0  0  0  0  0  0  0  0  0  0  0  0
   -8.5973  -71.4869  -21.0050 N   0  0  0  0  0  0  0  0  0  0  0  0
   -8.6093  -71.5692  -19.6545 C   0  0  0  0  0  0  0  0  0  0  0  0
   -7.6080  -72.3166  -19.0148 N   0  0  0  0  0  0  0  0  0  0  0  0
   -7.6509  -73.7175  -19.4108 C   0  0  0  0  0  0  0  0  0  0  0  0
   -6.3101  -71.6639  -18.8472 C   0  0  0  0  0  0  0  0  0  0  0  0
   -5.3837  -71.6387  -20.0593 C   0  0  1  0  0  0  0  0  0  0  0  0
   -4.1439  -70.7930  -19.8126 C   0  0  0  0  0  0  0  0  0  0  0  0
   -3.1668  -71.3287  -20.8351 C   0  0  0  0  0  0  0  0  0  0  0  0
   -3.4701  -72.7164  -21.0011 O   0  0  0  0  0  0  0  0  0  0  0  0
   -4.7569  -72.9764  -20.4223 C   0  0  0  0  0  0  0  0  0  0  0  0
   -9.6806  -71.0530  -18.9033 C   0  0  0  0  0  0  0  0  0  0  0  0
   -9.7004  -71.1035  -17.1728 Cl  0  0  0  0  0  0  0  0  0  0  0  0
  -10.7879  -70.5193  -19.5623 C   0  0  0  0  0  0  0  0  0  0  0  0
  1  2  1  0
  2  3  2  0
  3  4  1  0
  4  5  2  0
  5  6  1  0
  6  7  1  0
  6  8  1  0
  9  8  1  1
  9 10  1  0
 10 11  1  0
 11 12  1  0
 12 13  1  0
  5 14  1  0
 14 15  1  0
 14 16  2  0
 16  2  1  0
 13  9  1  0
M  END
>  <energy_score>  (82) 
-43.430298

>  <name>  (82) 
YCYARQWXNBKXND-SNVBAGLBSA-N

>  <distance_score>  (82) 
0.81124

>  <original ID>  (82) 
YCYARQWXNBKXND-SNVBAGLBSA-N

>  <HIPPO Compound ID>  (82) 
69057

>  <exports>  (82) 
['/opt/xchem-fragalysis-2/maxwin/BulkDock/OUTPUTS/thumb_site_2_fstein_bulkdock_input_split1000_batch000_217914.sdf', '/opt/xchem-fragalysis-2/maxwin/BulkDock/OUTPUTS/thumb_site_2_fstein_bulkdock_input_split1000_batch000_217914_fragalysis.sdf']

>  <fragmenstein_mode>  (82) 
expansion

>  <scratch_subdir>  (82) 
/opt/xchem-fragalysis-2/maxwin/BulkDock/SCRATCH/217914/C69057-P48

>  <ref_pdb>  (82) 
d0587a

>  <ref_mols>  (82) 
d0258a,d0587a

>  <original SMILES>  (82) 
Cc1cnc(N(C)C[C@H]2CCOC2)c(Cl)c1

>  <alias>  (82) 
None

>  <tags>  (82) 
['DF curated INTERESTING', 'Fragmenstein pure merge', 'Thumb Site 2 merge', 'Fragmenstein placed', 'acceptable']

>  <fragmenstein_outcome>  (82) 
acceptable

>  <csv_name>  (82) 
thumb_site_2_fstein_bulkdock_input_split1000_batch000.csv

>  <HIPPO Pose ID>  (82) 
81056

>  <SLURM_JOB_NAME>  (82) 
BulkDock.place:Flavi_NS5_RdRp:thumb_site_2_fstein_bulkdock_input_split1000_batch000

>  <fragmenstein_runtime>  (82) 
1.46965

>  <fragmenstein_error>  (82) 
None

>  <SLURM_JOB_ID>  (82) 
217914

>  <inchikey>  (82) 
YCYARQWXNBKXND-SNVBAGLBSA-N

$$$$
PANZNSUBQUNTNU-UHFFFAOYSA-N
     RDKit          3D

 19 21  0  0  0  0  0  0  0  0999 V2000
  -11.5270  -69.9822  -22.2124 N   0  0  0  0  0  0  0  0  0  0  0  0
  -10.7265  -70.4216  -21.4972 C   0  0  0  0  0  0  0  0  0  0  0  0
   -9.7786  -70.9660  -20.5793 C   0  0  0  0  0  0  0  0  0  0  0  0
   -8.6572  -71.6232  -21.0893 C   0  0  0  0  0  0  0  0  0  0  0  0
   -7.7227  -72.2016  -20.2312 C   0  0  0  0  0  0  0  0  0  0  0  0
   -7.8714  -72.1019  -18.8430 C   0  0  0  0  0  0  0  0  0  0  0  0
   -6.8842  -72.7107  -17.8761 C   0  0  0  0  0  0  0  0  0  0  0  0
   -5.5125  -72.8263  -18.3480 N   0  0  0  0  0  0  0  0  0  0  0  0
   -4.7716  -73.9716  -18.2022 C   0  0  0  0  0  0  0  0  0  0  0  0
   -3.5472  -73.8239  -18.6446 N   0  0  0  0  0  0  0  0  0  0  0  0
   -3.4827  -72.5305  -19.0937 C   0  0  0  0  0  0  0  0  0  0  0  0
   -2.3996  -71.8541  -19.6736 C   0  0  0  0  0  0  0  0  0  0  0  0
   -2.5760  -70.5340  -20.0967 C   0  0  0  0  0  0  0  0  0  0  0  0
   -3.8037  -69.8939  -19.9278 C   0  0  0  0  0  0  0  0  0  0  0  0
   -4.8875  -70.5391  -19.3170 C   0  0  0  0  0  0  0  0  0  0  0  0
   -4.7005  -71.8700  -18.9176 C   0  0  0  0  0  0  0  0  0  0  0  0
   -9.0199  -71.4694  -18.3374 C   0  0  0  0  0  0  0  0  0  0  0  0
   -9.9621  -70.9040  -19.1972 C   0  0  0  0  0  0  0  0  0  0  0  0
  -11.0397  -70.3238  -18.5879 O   0  0  0  0  0  0  0  0  0  0  0  0
  1  2  3  0
  2  3  1  0
  3  4  2  0
  4  5  1  0
  5  6  2  0
  6  7  1  0
  7  8  1  0
  8  9  1  0
  9 10  2  0
 10 11  1  0
 11 12  2  0
 12 13  1  0
 13 14  2  0
 14 15  1  0
 15 16  2  0
  6 17  1  0
 17 18  2  0
 18 19  1  0
 18  3  1  0
 16  8  1  0
 16 11  1  0
M  END
>  <energy_score>  (83) 
-15.178786

>  <name>  (83) 
PANZNSUBQUNTNU-UHFFFAOYSA-N

>  <distance_score>  (83) 
0.94423

>  <original ID>  (83) 
PANZNSUBQUNTNU-UHFFFAOYSA-N

>  <HIPPO Compound ID>  (83) 
69116

>  <exports>  (83) 
['/opt/xchem-fragalysis-2/maxwin/BulkDock/OUTPUTS/thumb_site_2_fstein_bulkdock_input_split1000_batch000_217914.sdf', '/opt/xchem-fragalysis-2/maxwin/BulkDock/OUTPUTS/thumb_site_2_fstein_bulkdock_input_split1000_batch000_217914_fragalysis.sdf']

>  <fragmenstein_mode>  (83) 
expansion

>  <scratch_subdir>  (83) 
/opt/xchem-fragalysis-2/maxwin/BulkDock/SCRATCH/217914/C69116-P52

>  <ref_pdb>  (83) 
d0644a

>  <ref_mols>  (83) 
d0644a,d0749a

>  <original SMILES>  (83) 
N#Cc1ccc(Cn2cnc3ccccc32)cc1O

>  <alias>  (83) 
None

>  <tags>  (83) 
['DF curated INTERESTING', 'Fragmenstein pure merge', 'Thumb Site 2 merge', 'Fragmenstein placed', 'acceptable']

>  <fragmenstein_outcome>  (83) 
acceptable

>  <csv_name>  (83) 
thumb_site_2_fstein_bulkdock_input_split1000_batch000.csv

>  <HIPPO Pose ID>  (83) 
81200

>  <SLURM_JOB_NAME>  (83) 
BulkDock.place:Flavi_NS5_RdRp:thumb_site_2_fstein_bulkdock_input_split1000_batch000

>  <fragmenstein_runtime>  (83) 
7.674559

>  <fragmenstein_error>  (83) 
None

>  <SLURM_JOB_ID>  (83) 
217914

>  <inchikey>  (83) 
PANZNSUBQUNTNU-UHFFFAOYSA-N

$$$$
YCJFKKPTJKKHNY-OAQYLSRUSA-N
     RDKit          3D

 27 29  0  0  0  0  0  0  0  0999 V2000
   -7.4210  -73.2401  -17.5008 N   0  0  0  0  0  0  0  0  0  0  0  0
   -7.3963  -72.5906  -18.8225 C   0  0  2  0  0  0  0  0  0  0  0  0
   -6.0688  -71.8687  -19.0536 C   0  0  0  0  0  0  0  0  0  0  0  0
   -5.9731  -70.5198  -19.4318 C   0  0  0  0  0  0  0  0  0  0  0  0
   -4.7329  -69.9284  -19.6895 C   0  0  0  0  0  0  0  0  0  0  0  0
   -3.5620  -70.6680  -19.5608 C   0  0  0  0  0  0  0  0  0  0  0  0
   -3.6291  -72.0027  -19.1797 C   0  0  0  0  0  0  0  0  0  0  0  0
   -4.8686  -72.5986  -18.9396 C   0  0  0  0  0  0  0  0  0  0  0  0
   -8.6491  -71.7593  -18.9769 C   0  0  0  0  0  0  0  0  0  0  0  0
   -9.4749  -71.1892  -18.0276 C   0  0  0  0  0  0  0  0  0  0  0  0
  -10.6356  -70.5948  -18.6051 C   0  0  0  0  0  0  0  0  0  0  0  0
  -10.6779  -70.7121  -19.9851 C   0  0  0  0  0  0  0  0  0  0  0  0
  -11.7204  -70.2815  -20.9401 C   0  0  0  0  0  0  0  0  0  0  0  0
  -12.7991  -69.4984  -20.5057 C   0  0  0  0  0  0  0  0  0  0  0  0
  -13.8007  -69.0804  -21.3936 C   0  0  0  0  0  0  0  0  0  0  0  0
  -14.9776  -68.2875  -20.8867 C   0  0  0  0  0  0  0  0  0  0  0  0
  -16.1504  -69.1723  -20.5418 C   0  0  0  0  0  0  0  0  0  0  0  0
  -16.4585  -70.1958  -21.1335 O   0  0  0  0  0  0  0  0  0  0  0  0
  -16.8719  -68.7195  -19.4944 O   0  0  0  0  0  0  0  0  0  0  0  0
  -13.7260  -69.4573  -22.7390 C   0  0  0  0  0  0  0  0  0  0  0  0
  -12.6605  -70.2239  -23.2095 C   0  0  0  0  0  0  0  0  0  0  0  0
  -12.5348  -70.5836  -24.6738 C   0  0  0  0  0  0  0  0  0  0  0  0
  -11.6473  -69.6445  -25.4574 C   0  0  0  0  0  0  0  0  0  0  0  0
  -11.9325  -69.1590  -26.5408 O   0  0  0  0  0  0  0  0  0  0  0  0
  -10.4668  -69.4096  -24.8513 O   0  0  0  0  0  0  0  0  0  0  0  0
  -11.6764  -70.6333  -22.3009 C   0  0  0  0  0  0  0  0  0  0  0  0
   -9.2584  -71.4916  -20.5483 S   0  0  0  0  0  0  0  0  0  0  0  0
  2  1  1  1
  2  3  1  0
  3  4  2  0
  4  5  1  0
  5  6  2  0
  6  7  1  0
  7  8  2  0
  2  9  1  0
  9 10  2  0
 10 11  1  0
 11 12  2  0
 12 13  1  0
 13 14  2  0
 14 15  1  0
 15 16  1  0
 16 17  1  0
 17 18  2  0
 17 19  1  0
 15 20  2  0
 20 21  1  0
 21 22  1  0
 22 23  1  0
 23 24  2  0
 23 25  1  0
 21 26  2  0
 12 27  1  0
  8  3  1  0
 27  9  1  0
 26 13  1  0
M  END
>  <energy_score>  (84) 
-69.07784

>  <name>  (84) 
YCJFKKPTJKKHNY-OAQYLSRUSA-N

>  <distance_score>  (84) 
0.748453

>  <original ID>  (84) 
YCJFKKPTJKKHNY-OAQYLSRUSA-N

>  <HIPPO Compound ID>  (84) 
69322

>  <exports>  (84) 
['/opt/xchem-fragalysis-2/maxwin/BulkDock/OUTPUTS/thumb_site_2_fstein_bulkdock_input_split1000_batch000_217914.sdf', '/opt/xchem-fragalysis-2/maxwin/BulkDock/OUTPUTS/thumb_site_2_fstein_bulkdock_input_split1000_batch000_217914_fragalysis.sdf']

>  <fragmenstein_mode>  (84) 
expansion

>  <scratch_subdir>  (84) 
/opt/xchem-fragalysis-2/maxwin/BulkDock/SCRATCH/217914/C69322-P15

>  <ref_pdb>  (84) 
d0162a

>  <ref_mols>  (84) 
d0162a,5hmx-a

>  <original SMILES>  (84) 
N[C@H](c1ccccc1)c1ccc(-c2cc(CC(=O)O)cc(CC(=O)O)c2)s1

>  <alias>  (84) 
None

>  <tags>  (84) 
['DF curated INTERESTING', 'Fragmenstein pure merge', 'Thumb Site 2 merge', 'Fragmenstein placed', 'JA curated YES', 'acceptable']

>  <fragmenstein_outcome>  (84) 
acceptable

>  <csv_name>  (84) 
thumb_site_2_fstein_bulkdock_input_split1000_batch000.csv

>  <HIPPO Pose ID>  (84) 
81672

>  <SLURM_JOB_NAME>  (84) 
BulkDock.place:Flavi_NS5_RdRp:thumb_site_2_fstein_bulkdock_input_split1000_batch000

>  <fragmenstein_runtime>  (84) 
16.322268

>  <fragmenstein_error>  (84) 
None

>  <SLURM_JOB_ID>  (84) 
217914

>  <inchikey>  (84) 
YCJFKKPTJKKHNY-OAQYLSRUSA-N

$$$$
YCJFKKPTJKKHNY-OAQYLSRUSA-N
     RDKit          3D

 27 29  0  0  0  0  0  0  0  0999 V2000
   -7.7539  -73.6927  -17.5358 N   0  0  0  0  0  0  0  0  0  0  0  0
   -7.5707  -72.8504  -18.7249 C   0  0  2  0  0  0  0  0  0  0  0  0
   -6.2240  -72.1441  -18.6639 C   0  0  0  0  0  0  0  0  0  0  0  0
   -6.0676  -70.7595  -18.7851 C   0  0  0  0  0  0  0  0  0  0  0  0
   -4.7943  -70.1891  -18.8825 C   0  0  0  0  0  0  0  0  0  0  0  0
   -3.6542  -70.9825  -18.8148 C   0  0  0  0  0  0  0  0  0  0  0  0
   -3.7861  -72.3533  -18.6345 C   0  0  0  0  0  0  0  0  0  0  0  0
   -5.0568  -72.9271  -18.5634 C   0  0  0  0  0  0  0  0  0  0  0  0
   -8.7845  -71.9723  -18.9379 C   0  0  0  0  0  0  0  0  0  0  0  0
   -9.6857  -71.4558  -18.0289 C   0  0  0  0  0  0  0  0  0  0  0  0
  -10.7837  -70.8119  -18.6703 C   0  0  0  0  0  0  0  0  0  0  0  0
  -10.7000  -70.8183  -20.0537 C   0  0  0  0  0  0  0  0  0  0  0  0
  -11.6684  -70.3149  -21.0544 C   0  0  0  0  0  0  0  0  0  0  0  0
  -12.8006  -69.6011  -20.6343 C   0  0  0  0  0  0  0  0  0  0  0  0
  -13.7545  -69.1289  -21.5467 C   0  0  0  0  0  0  0  0  0  0  0  0
  -14.9868  -68.4238  -21.0390 C   0  0  0  0  0  0  0  0  0  0  0  0
  -16.1060  -69.3779  -20.6759 C   0  0  0  0  0  0  0  0  0  0  0  0
  -16.3741  -70.4067  -21.2793 O   0  0  0  0  0  0  0  0  0  0  0  0
  -16.8593  -68.9489  -19.6364 O   0  0  0  0  0  0  0  0  0  0  0  0
  -13.5718  -69.3712  -22.9127 C   0  0  0  0  0  0  0  0  0  0  0  0
  -12.4707  -70.1004  -23.3701 C   0  0  0  0  0  0  0  0  0  0  0  0
  -12.3030  -70.4160  -24.8431 C   0  0  0  0  0  0  0  0  0  0  0  0
  -11.4173  -69.4610  -25.6057 C   0  0  0  0  0  0  0  0  0  0  0  0
  -11.6875  -68.9714  -26.6914 O   0  0  0  0  0  0  0  0  0  0  0  0
  -10.2438  -69.2248  -24.9880 O   0  0  0  0  0  0  0  0  0  0  0  0
  -11.5275  -70.5552  -22.4340 C   0  0  0  0  0  0  0  0  0  0  0  0
   -9.2240  -71.5463  -20.5377 S   0  0  0  0  0  0  0  0  0  0  0  0
  2  1  1  1
  2  3  1  0
  3  4  2  0
  4  5  1  0
  5  6  2  0
  6  7  1  0
  7  8  2  0
  2  9  1  0
  9 10  2  0
 10 11  1  0
 11 12  2  0
 12 13  1  0
 13 14  2  0
 14 15  1  0
 15 16  1  0
 16 17  1  0
 17 18  2  0
 17 19  1  0
 15 20  2  0
 20 21  1  0
 21 22  1  0
 22 23  1  0
 23 24  2  0
 23 25  1  0
 21 26  2  0
 12 27  1  0
  8  3  1  0
 27  9  1  0
 26 13  1  0
M  END
>  <energy_score>  (85) 
-70.93952

>  <name>  (85) 
YCJFKKPTJKKHNY-OAQYLSRUSA-N

>  <distance_score>  (85) 
0.894133

>  <original ID>  (85) 
YCJFKKPTJKKHNY-OAQYLSRUSA-N

>  <HIPPO Compound ID>  (85) 
69322

>  <exports>  (85) 
['/opt/xchem-fragalysis-2/maxwin/BulkDock/OUTPUTS/thumb_site_2_fstein_bulkdock_input_split1000_batch000_217914.sdf', '/opt/xchem-fragalysis-2/maxwin/BulkDock/OUTPUTS/thumb_site_2_fstein_bulkdock_input_split1000_batch000_217914_fragalysis.sdf']

>  <fragmenstein_mode>  (85) 
expansion

>  <scratch_subdir>  (85) 
/opt/xchem-fragalysis-2/maxwin/BulkDock/SCRATCH/217914/C69322-P224

>  <ref_pdb>  (85) 
5hmx-a

>  <ref_mols>  (85) 
d0162a,5hmx-a

>  <original SMILES>  (85) 
N[C@H](c1ccccc1)c1ccc(-c2cc(CC(=O)O)cc(CC(=O)O)c2)s1

>  <alias>  (85) 
None

>  <tags>  (85) 
['DF curated INTERESTING', 'Fragmenstein pure merge', 'Thumb Site 2 merge', 'Fragmenstein placed', 'JA curated YES', 'acceptable']

>  <fragmenstein_outcome>  (85) 
acceptable

>  <csv_name>  (85) 
thumb_site_2_fstein_bulkdock_input_split1000_batch000.csv

>  <HIPPO Pose ID>  (85) 
81675

>  <SLURM_JOB_NAME>  (85) 
BulkDock.place:Flavi_NS5_RdRp:thumb_site_2_fstein_bulkdock_input_split1000_batch000

>  <fragmenstein_runtime>  (85) 
16.101909

>  <fragmenstein_error>  (85) 
None

>  <SLURM_JOB_ID>  (85) 
217914

>  <inchikey>  (85) 
YCJFKKPTJKKHNY-OAQYLSRUSA-N

$$$$
RIGFXPYYCKCHGJ-UHFFFAOYSA-N
     RDKit          3D

 25 26  0  0  0  0  0  0  0  0999 V2000
  -15.8476  -46.9142  -18.0457 C   0  0  0  0  0  0  0  0  0  0  0  0
  -16.6439  -45.7499  -18.2525 O   0  0  0  0  0  0  0  0  0  0  0  0
  -16.0017  -44.7730  -18.9526 C   0  0  0  0  0  0  0  0  0  0  0  0
  -15.2380  -43.8510  -18.2040 C   0  0  0  0  0  0  0  0  0  0  0  0
  -15.2298  -43.8461  -16.6884 C   0  0  0  0  0  0  0  0  0  0  0  0
  -16.6019  -43.7615  -16.0547 C   0  0  0  0  0  0  0  0  0  0  0  0
  -17.4094  -42.8462  -16.1554 O   0  0  0  0  0  0  0  0  0  0  0  0
  -16.8872  -44.8433  -15.3002 O   0  0  0  0  0  0  0  0  0  0  0  0
  -14.4496  -42.9282  -18.8940 C   0  0  0  0  0  0  0  0  0  0  0  0
  -14.4686  -42.8834  -20.2903 C   0  0  0  0  0  0  0  0  0  0  0  0
  -13.5650  -41.9235  -21.0274 C   0  0  0  0  0  0  0  0  0  0  0  0
  -14.0476  -40.4983  -20.9998 C   0  0  0  0  0  0  0  0  0  0  0  0
  -15.1917  -40.1063  -20.8247 O   0  0  0  0  0  0  0  0  0  0  0  0
  -13.0666  -39.6105  -21.2662 O   0  0  0  0  0  0  0  0  0  0  0  0
  -15.3540  -43.7183  -20.9964 C   0  0  0  0  0  0  0  0  0  0  0  0
  -16.1847  -44.6526  -20.3478 C   0  0  0  0  0  0  0  0  0  0  0  0
  -17.2026  -45.4354  -21.1202 C   0  0  0  0  0  0  0  0  0  0  0  0
  -17.8836  -46.6069  -20.8188 C   0  0  0  0  0  0  0  0  0  0  0  0
  -18.7579  -47.0554  -21.8591 C   0  0  0  0  0  0  0  0  0  0  0  0
  -18.7891  -46.1864  -22.9189 C   0  0  0  0  0  0  0  0  0  0  0  0
  -19.5269  -46.3832  -24.1268 C   0  0  0  0  0  0  0  0  0  0  0  0
  -20.0782  -46.4977  -25.1898 C   0  0  0  0  0  0  0  0  0  0  0  0
  -20.6329  -46.5429  -26.5422 C   0  0  0  0  0  0  0  0  0  0  0  0
  -22.0428  -46.3582  -26.4974 O   0  0  0  0  0  0  0  0  0  0  0  0
  -17.7920  -44.8392  -22.6358 S   0  0  0  0  0  0  0  0  0  0  0  0
  1  2  1  0
  2  3  1  0
  3  4  2  0
  4  5  1  0
  5  6  1  0
  6  7  2  0
  6  8  1  0
  4  9  1  0
  9 10  2  0
 10 11  1  0
 11 12  1  0
 12 13  2  0
 12 14  1  0
 10 15  1  0
 15 16  2  0
 16 17  1  0
 17 18  2  0
 18 19  1  0
 19 20  2  0
 20 21  1  0
 21 22  3  0
 22 23  1  0
 23 24  1  0
 20 25  1  0
 16  3  1  0
 25 17  1  0
M  END
>  <energy_score>  (86) 
-82.226969

>  <name>  (86) 
RIGFXPYYCKCHGJ-UHFFFAOYSA-N

>  <distance_score>  (86) 
1.019154

>  <original ID>  (86) 
RIGFXPYYCKCHGJ-UHFFFAOYSA-N

>  <HIPPO Compound ID>  (86) 
67659

>  <exports>  (86) 
['/opt/xchem-fragalysis-2/maxwin/BulkDock/OUTPUTS/primer_grip_n_pocket_fstein_bulkdock_input_split1000_batch000_217912.sdf', '/opt/xchem-fragalysis-2/maxwin/BulkDock/OUTPUTS/primer_grip_n_pocket_fstein_bulkdock_input_split1000_batch000_217912_fragalysis.sdf']

>  <fragmenstein_mode>  (86) 
expansion

>  <scratch_subdir>  (86) 
/opt/xchem-fragalysis-2/maxwin/BulkDock/SCRATCH/217912/C67659-P216

>  <ref_pdb>  (86) 
5hmy-a

>  <ref_mols>  (86) 
z0052a,z0103a,5hmy-a,5i3q-a,5hmx-b,5k5m-a

>  <original SMILES>  (86) 
COc1c(CC(=O)O)cc(CC(=O)O)cc1-c1ccc(C#CCO)s1

>  <alias>  (86) 
None

>  <tags>  (86) 
['Primer grip/N-pocket merge', 'Fragmenstein pure merge', 'DF curated YES', 'Fragmenstein placed', 'acceptable']

>  <fragmenstein_outcome>  (86) 
acceptable

>  <csv_name>  (86) 
primer_grip_n_pocket_fstein_bulkdock_input_split1000_batch000.csv

>  <HIPPO Pose ID>  (86) 
82075

>  <SLURM_JOB_NAME>  (86) 
BulkDock.place:Flavi_NS5_RdRp:primer_grip_n_pocket_fstein_bulkdock_input_split1000_batch000

>  <fragmenstein_runtime>  (86) 
6.168025

>  <fragmenstein_error>  (86) 
None

>  <SLURM_JOB_ID>  (86) 
217912

>  <inchikey>  (86) 
RIGFXPYYCKCHGJ-UHFFFAOYSA-N

$$$$
RIGFXPYYCKCHGJ-UHFFFAOYSA-N
     RDKit          3D

 25 26  0  0  0  0  0  0  0  0999 V2000
  -14.6399  -43.8630  -23.1591 C   0  0  0  0  0  0  0  0  0  0  0  0
  -15.4931  -43.1233  -22.3023 O   0  0  0  0  0  0  0  0  0  0  0  0
  -15.4804  -43.5637  -21.0016 C   0  0  0  0  0  0  0  0  0  0  0  0
  -14.6291  -42.8688  -20.1100 C   0  0  0  0  0  0  0  0  0  0  0  0
  -13.6512  -41.8166  -20.5788 C   0  0  0  0  0  0  0  0  0  0  0  0
  -14.1693  -40.4196  -20.3755 C   0  0  0  0  0  0  0  0  0  0  0  0
  -14.9748  -39.8290  -21.0812 O   0  0  0  0  0  0  0  0  0  0  0  0
  -13.6769  -39.8259  -19.2683 O   0  0  0  0  0  0  0  0  0  0  0  0
  -14.7266  -43.1049  -18.7264 C   0  0  0  0  0  0  0  0  0  0  0  0
  -15.6538  -44.0126  -18.2143 C   0  0  0  0  0  0  0  0  0  0  0  0
  -15.7598  -44.2657  -16.7222 C   0  0  0  0  0  0  0  0  0  0  0  0
  -16.5089  -43.2294  -15.9133 C   0  0  0  0  0  0  0  0  0  0  0  0
  -17.2606  -42.3473  -16.2988 O   0  0  0  0  0  0  0  0  0  0  0  0
  -16.2975  -43.3912  -14.5868 O   0  0  0  0  0  0  0  0  0  0  0  0
  -16.4656  -44.7143  -19.1218 C   0  0  0  0  0  0  0  0  0  0  0  0
  -16.4125  -44.5162  -20.5243 C   0  0  0  0  0  0  0  0  0  0  0  0
  -17.3355  -45.3365  -21.3610 C   0  0  0  0  0  0  0  0  0  0  0  0
  -17.8611  -46.5910  -21.0717 C   0  0  0  0  0  0  0  0  0  0  0  0
  -18.6963  -47.1170  -22.1026 C   0  0  0  0  0  0  0  0  0  0  0  0
  -18.8278  -46.2409  -23.1511 C   0  0  0  0  0  0  0  0  0  0  0  0
  -19.5787  -46.4929  -24.3417 C   0  0  0  0  0  0  0  0  0  0  0  0
  -20.1839  -46.6425  -25.3705 C   0  0  0  0  0  0  0  0  0  0  0  0
  -20.8447  -46.7413  -26.6709 C   0  0  0  0  0  0  0  0  0  0  0  0
  -22.1625  -46.2049  -26.5869 O   0  0  0  0  0  0  0  0  0  0  0  0
  -17.9844  -44.7882  -22.8522 S   0  0  0  0  0  0  0  0  0  0  0  0
  1  2  1  0
  2  3  1  0
  3  4  2  0
  4  5  1  0
  5  6  1  0
  6  7  2  0
  6  8  1  0
  4  9  1  0
  9 10  2  0
 10 11  1  0
 11 12  1  0
 12 13  2  0
 12 14  1  0
 10 15  1  0
 15 16  2  0
 16 17  1  0
 17 18  2  0
 18 19  1  0
 19 20  2  0
 20 21  1  0
 21 22  3  0
 22 23  1  0
 23 24  1  0
 20 25  1  0
 16  3  1  0
 25 17  1  0
M  END
>  <energy_score>  (87) 
-81.057224

>  <name>  (87) 
RIGFXPYYCKCHGJ-UHFFFAOYSA-N

>  <distance_score>  (87) 
0.511882

>  <original ID>  (87) 
RIGFXPYYCKCHGJ-UHFFFAOYSA-N

>  <HIPPO Compound ID>  (87) 
67659

>  <exports>  (87) 
['/opt/xchem-fragalysis-2/maxwin/BulkDock/OUTPUTS/primer_grip_n_pocket_fstein_bulkdock_input_split1000_batch000_217912.sdf', '/opt/xchem-fragalysis-2/maxwin/BulkDock/OUTPUTS/primer_grip_n_pocket_fstein_bulkdock_input_split1000_batch000_217912_fragalysis.sdf']

>  <fragmenstein_mode>  (87) 
expansion

>  <scratch_subdir>  (87) 
/opt/xchem-fragalysis-2/maxwin/BulkDock/SCRATCH/217912/C67659-P221

>  <ref_pdb>  (87) 
5i3q-a

>  <ref_mols>  (87) 
5hmy-a,5i3q-a

>  <original SMILES>  (87) 
COc1c(CC(=O)O)cc(CC(=O)O)cc1-c1ccc(C#CCO)s1

>  <alias>  (87) 
None

>  <tags>  (87) 
['Primer grip/N-pocket merge', 'Fragmenstein pure merge', 'DF curated YES', 'Fragmenstein placed', 'acceptable']

>  <fragmenstein_outcome>  (87) 
acceptable

>  <csv_name>  (87) 
primer_grip_n_pocket_fstein_bulkdock_input_split1000_batch000.csv

>  <HIPPO Pose ID>  (87) 
82085

>  <SLURM_JOB_NAME>  (87) 
BulkDock.place:Flavi_NS5_RdRp:primer_grip_n_pocket_fstein_bulkdock_input_split1000_batch000

>  <fragmenstein_runtime>  (87) 
4.007996

>  <fragmenstein_error>  (87) 
None

>  <SLURM_JOB_ID>  (87) 
217912

>  <inchikey>  (87) 
RIGFXPYYCKCHGJ-UHFFFAOYSA-N

$$$$
RIGFXPYYCKCHGJ-UHFFFAOYSA-N
     RDKit          3D

 25 26  0  0  0  0  0  0  0  0999 V2000
  -14.0970  -44.0253  -22.9443 C   0  0  0  0  0  0  0  0  0  0  0  0
  -14.9494  -43.2742  -22.0940 O   0  0  0  0  0  0  0  0  0  0  0  0
  -14.9893  -43.7363  -20.8008 C   0  0  0  0  0  0  0  0  0  0  0  0
  -14.1365  -43.0841  -19.8800 C   0  0  0  0  0  0  0  0  0  0  0  0
  -13.1057  -42.0656  -20.3148 C   0  0  0  0  0  0  0  0  0  0  0  0
  -13.6139  -40.6535  -20.2239 C   0  0  0  0  0  0  0  0  0  0  0  0
  -14.2652  -40.0547  -21.0671 O   0  0  0  0  0  0  0  0  0  0  0  0
  -13.3162  -40.0608  -19.0482 O   0  0  0  0  0  0  0  0  0  0  0  0
  -14.2817  -43.3294  -18.5032 C   0  0  0  0  0  0  0  0  0  0  0  0
  -15.2419  -44.2221  -18.0251 C   0  0  0  0  0  0  0  0  0  0  0  0
  -15.4060  -44.4418  -16.5320 C   0  0  0  0  0  0  0  0  0  0  0  0
  -16.1468  -43.3394  -15.7900 C   0  0  0  0  0  0  0  0  0  0  0  0
  -16.9358  -42.5401  -16.2803 O   0  0  0  0  0  0  0  0  0  0  0  0
  -15.9137  -43.3340  -14.4579 O   0  0  0  0  0  0  0  0  0  0  0  0
  -16.0469  -44.8960  -18.9618 C   0  0  0  0  0  0  0  0  0  0  0  0
  -15.9631  -44.6655  -20.3602 C   0  0  0  0  0  0  0  0  0  0  0  0
  -16.8987  -45.4268  -21.2388 C   0  0  0  0  0  0  0  0  0  0  0  0
  -17.4341  -46.6913  -21.0229 C   0  0  0  0  0  0  0  0  0  0  0  0
  -18.2834  -47.1396  -22.0786 C   0  0  0  0  0  0  0  0  0  0  0  0
  -18.3977  -46.2067  -23.0807 C   0  0  0  0  0  0  0  0  0  0  0  0
  -19.1337  -46.4034  -24.2915 C   0  0  0  0  0  0  0  0  0  0  0  0
  -19.7315  -46.5866  -25.3193 C   0  0  0  0  0  0  0  0  0  0  0  0
  -20.4143  -46.8608  -26.5820 C   0  0  0  0  0  0  0  0  0  0  0  0
  -21.5795  -46.0424  -26.7024 O   0  0  0  0  0  0  0  0  0  0  0  0
  -17.5380  -44.7850  -22.7007 S   0  0  0  0  0  0  0  0  0  0  0  0
  1  2  1  0
  2  3  1  0
  3  4  2  0
  4  5  1  0
  5  6  1  0
  6  7  2  0
  6  8  1  0
  4  9  1  0
  9 10  2  0
 10 11  1  0
 11 12  1  0
 12 13  2  0
 12 14  1  0
 10 15  1  0
 15 16  2  0
 16 17  1  0
 17 18  2  0
 18 19  1  0
 19 20  2  0
 20 21  1  0
 21 22  3  0
 22 23  1  0
 23 24  1  0
 20 25  1  0
 16  3  1  0
 25 17  1  0
M  END
>  <energy_score>  (88) 
-74.285712

>  <name>  (88) 
RIGFXPYYCKCHGJ-UHFFFAOYSA-N

>  <distance_score>  (88) 
0.710481

>  <original ID>  (88) 
RIGFXPYYCKCHGJ-UHFFFAOYSA-N

>  <HIPPO Compound ID>  (88) 
67659

>  <exports>  (88) 
['/opt/xchem-fragalysis-2/maxwin/BulkDock/OUTPUTS/primer_grip_n_pocket_fstein_bulkdock_input_split1000_batch000_217912.sdf', '/opt/xchem-fragalysis-2/maxwin/BulkDock/OUTPUTS/primer_grip_n_pocket_fstein_bulkdock_input_split1000_batch000_217912_fragalysis.sdf']

>  <fragmenstein_mode>  (88) 
expansion

>  <scratch_subdir>  (88) 
/opt/xchem-fragalysis-2/maxwin/BulkDock/SCRATCH/217912/C67659-P225

>  <ref_pdb>  (88) 
5k5m-a

>  <ref_mols>  (88) 
5hmy-a,5k5m-a

>  <original SMILES>  (88) 
COc1c(CC(=O)O)cc(CC(=O)O)cc1-c1ccc(C#CCO)s1

>  <alias>  (88) 
None

>  <tags>  (88) 
['Primer grip/N-pocket merge', 'Fragmenstein pure merge', 'DF curated YES', 'Fragmenstein placed', 'acceptable']

>  <fragmenstein_outcome>  (88) 
acceptable

>  <csv_name>  (88) 
primer_grip_n_pocket_fstein_bulkdock_input_split1000_batch000.csv

>  <HIPPO Pose ID>  (88) 
82087

>  <SLURM_JOB_NAME>  (88) 
BulkDock.place:Flavi_NS5_RdRp:primer_grip_n_pocket_fstein_bulkdock_input_split1000_batch000

>  <fragmenstein_runtime>  (88) 
5.47791

>  <fragmenstein_error>  (88) 
None

>  <SLURM_JOB_ID>  (88) 
217912

>  <inchikey>  (88) 
RIGFXPYYCKCHGJ-UHFFFAOYSA-N

$$$$
PLFWRPDYIAZGJA-QHCPKHFHSA-N
     RDKit          3D

 31 34  0  0  0  0  0  0  0  0999 V2000
  -14.6130  -40.0901  -20.2490 O   0  0  0  0  0  0  0  0  0  0  0  0
  -13.7475  -40.5562  -20.9761 C   0  0  0  0  0  0  0  0  0  0  0  0
  -12.9962  -39.7412  -21.7486 O   0  0  0  0  0  0  0  0  0  0  0  0
  -13.3665  -42.0099  -21.1270 C   0  0  0  0  0  0  0  0  0  0  0  0
  -14.3203  -42.9354  -20.4131 C   0  0  0  0  0  0  0  0  0  0  0  0
  -15.2238  -43.7278  -21.1313 C   0  0  0  0  0  0  0  0  0  0  0  0
  -16.2006  -44.4990  -20.4810 C   0  0  0  0  0  0  0  0  0  0  0  0
  -17.1663  -45.3043  -21.2513 C   0  0  0  0  0  0  0  0  0  0  0  0
  -17.5214  -46.6029  -20.8638 C   0  0  0  0  0  0  0  0  0  0  0  0
  -18.4106  -47.3626  -21.6278 C   0  0  0  0  0  0  0  0  0  0  0  0
  -18.9813  -46.8347  -22.7765 C   0  0  0  0  0  0  0  0  0  0  0  0
  -18.6406  -45.5564  -23.1803 C   0  0  0  0  0  0  0  0  0  0  0  0
  -17.7510  -44.8015  -22.4226 C   0  0  0  0  0  0  0  0  0  0  0  0
  -16.2520  -44.4348  -19.0779 C   0  0  0  0  0  0  0  0  0  0  0  0
  -15.3517  -43.6482  -18.3308 C   0  0  0  0  0  0  0  0  0  0  0  0
  -15.6030  -43.4519  -16.8366 C   0  0  2  0  0  0  0  0  0  0  0  0
  -16.6738  -42.3775  -16.6072 C   0  0  0  0  0  0  0  0  0  0  0  0
  -17.6598  -42.5363  -15.8964 O   0  0  0  0  0  0  0  0  0  0  0  0
  -16.4839  -41.2005  -17.2561 O   0  0  0  0  0  0  0  0  0  0  0  0
  -14.3847  -43.1369  -16.0123 C   0  0  0  0  0  0  0  0  0  0  0  0
  -13.4974  -43.9403  -15.3220 C   0  0  0  0  0  0  0  0  0  0  0  0
  -12.5403  -43.0618  -14.7338 C   0  0  0  0  0  0  0  0  0  0  0  0
  -11.3777  -43.3783  -13.8966 C   0  0  0  0  0  0  0  0  0  0  0  0
  -10.5069  -42.3596  -13.4913 C   0  0  0  0  0  0  0  0  0  0  0  0
   -9.4240  -42.6794  -12.6905 C   0  0  0  0  0  0  0  0  0  0  0  0
   -9.1498  -43.9281  -12.2661 N   0  0  0  0  0  0  0  0  0  0  0  0
  -10.0062  -44.8961  -12.6574 C   0  0  0  0  0  0  0  0  0  0  0  0
  -11.1113  -44.6791  -13.4682 C   0  0  0  0  0  0  0  0  0  0  0  0
  -12.8255  -41.7925  -15.0670 N   0  0  0  0  0  0  0  0  0  0  0  0
  -13.9839  -41.8584  -15.7233 N   0  0  0  0  0  0  0  0  0  0  0  0
  -14.3570  -42.9427  -19.0163 C   0  0  0  0  0  0  0  0  0  0  0  0
  1  2  2  0
  2  3  1  0
  2  4  1  0
  4  5  1  0
  5  6  2  0
  6  7  1  0
  7  8  1  0
  8  9  2  0
  9 10  1  0
 10 11  2  0
 11 12  1  0
 12 13  2  0
  7 14  2  0
 14 15  1  0
 15 16  1  0
 16 17  1  6
 17 18  2  0
 17 19  1  0
 16 20  1  0
 20 21  2  0
 21 22  1  0
 22 23  1  0
 23 24  2  0
 24 25  1  0
 25 26  2  0
 26 27  1  0
 27 28  2  0
 22 29  2  0
 29 30  1  0
 15 31  2  0
 31  5  1  0
 13  8  1  0
 30 20  1  0
 28 23  1  0
M  END
>  <energy_score>  (89) 
-54.763692

>  <name>  (89) 
PLFWRPDYIAZGJA-QHCPKHFHSA-N

>  <distance_score>  (89) 
0.985658

>  <original ID>  (89) 
PLFWRPDYIAZGJA-QHCPKHFHSA-N

>  <HIPPO Compound ID>  (89) 
67718

>  <exports>  (89) 
['/opt/xchem-fragalysis-2/maxwin/BulkDock/OUTPUTS/primer_grip_n_pocket_fstein_bulkdock_input_split1000_batch000_217912.sdf', '/opt/xchem-fragalysis-2/maxwin/BulkDock/OUTPUTS/primer_grip_n_pocket_fstein_bulkdock_input_split1000_batch000_217912_fragalysis.sdf']

>  <fragmenstein_mode>  (89) 
expansion

>  <scratch_subdir>  (89) 
/opt/xchem-fragalysis-2/maxwin/BulkDock/SCRATCH/217912/C67718-P223

>  <ref_pdb>  (89) 
5hmx-b

>  <ref_mols>  (89) 
5hmx-b,5hmz-a

>  <original SMILES>  (89) 
O=C(O)Cc1cc(-c2ccccc2)cc([C@H](C(=O)O)c2cc(-c3ccncc3)n[nH]2)c1

>  <alias>  (89) 
None

>  <tags>  (89) 
['DF curated INTERESTING', 'Primer grip/N-pocket merge', 'Fragmenstein pure merge', 'Fragmenstein placed', 'acceptable']

>  <fragmenstein_outcome>  (89) 
acceptable

>  <csv_name>  (89) 
primer_grip_n_pocket_fstein_bulkdock_input_split1000_batch000.csv

>  <HIPPO Pose ID>  (89) 
82419

>  <SLURM_JOB_NAME>  (89) 
BulkDock.place:Flavi_NS5_RdRp:primer_grip_n_pocket_fstein_bulkdock_input_split1000_batch000

>  <fragmenstein_runtime>  (89) 
6.283455

>  <fragmenstein_error>  (89) 
None

>  <SLURM_JOB_ID>  (89) 
217912

>  <inchikey>  (89) 
PLFWRPDYIAZGJA-QHCPKHFHSA-N

$$$$
KPCMUKYNNKXHMF-UHFFFAOYSA-N
     RDKit          3D

 21 22  0  0  0  0  0  0  0  0999 V2000
  -15.2292  -43.8114  -22.5733 N   0  0  0  0  0  0  0  0  0  0  0  0
  -15.3433  -43.8858  -21.1703 C   0  0  0  0  0  0  0  0  0  0  0  0
  -14.4909  -43.1138  -20.3544 C   0  0  0  0  0  0  0  0  0  0  0  0
  -13.4830  -42.1462  -20.9238 C   0  0  0  0  0  0  0  0  0  0  0  0
  -13.9051  -40.7064  -20.7869 C   0  0  0  0  0  0  0  0  0  0  0  0
  -15.0405  -40.2948  -20.9924 O   0  0  0  0  0  0  0  0  0  0  0  0
  -12.8907  -39.8756  -20.4537 O   0  0  0  0  0  0  0  0  0  0  0  0
  -14.5773  -43.2172  -18.9555 C   0  0  0  0  0  0  0  0  0  0  0  0
  -15.5424  -44.0242  -18.3539 C   0  0  0  0  0  0  0  0  0  0  0  0
  -15.6482  -44.1143  -16.8484 C   0  0  0  0  0  0  0  0  0  0  0  0
  -16.6341  -43.1749  -16.1907 C   0  0  0  0  0  0  0  0  0  0  0  0
  -17.0785  -43.3586  -15.0655 O   0  0  0  0  0  0  0  0  0  0  0  0
  -16.9905  -42.0789  -16.8995 O   0  0  0  0  0  0  0  0  0  0  0  0
  -16.4551  -44.7001  -19.1718 C   0  0  0  0  0  0  0  0  0  0  0  0
  -16.3920  -44.6389  -20.5799 C   0  0  0  0  0  0  0  0  0  0  0  0
  -17.3727  -45.4133  -21.3799 C   0  0  0  0  0  0  0  0  0  0  0  0
  -17.6682  -46.7492  -21.0637 C   0  0  0  0  0  0  0  0  0  0  0  0
  -18.5416  -47.5019  -21.8501 C   0  0  0  0  0  0  0  0  0  0  0  0
  -19.1386  -46.9411  -22.9677 C   0  0  0  0  0  0  0  0  0  0  0  0
  -18.8583  -45.6319  -23.3049 C   0  0  0  0  0  0  0  0  0  0  0  0
  -18.0166  -44.8649  -22.5000 C   0  0  0  0  0  0  0  0  0  0  0  0
  1  2  1  0
  2  3  2  0
  3  4  1  0
  4  5  1  0
  5  6  2  0
  5  7  1  0
  3  8  1  0
  8  9  2  0
  9 10  1  0
 10 11  1  0
 11 12  2  0
 11 13  1  0
  9 14  1  0
 14 15  2  0
 15 16  1  0
 16 17  2  0
 17 18  1  0
 18 19  2  0
 19 20  1  0
 20 21  2  0
 15  2  1  0
 21 16  1  0
M  END
>  <energy_score>  (90) 
-57.201697

>  <name>  (90) 
KPCMUKYNNKXHMF-UHFFFAOYSA-N

>  <distance_score>  (90) 
0.807199

>  <original ID>  (90) 
KPCMUKYNNKXHMF-UHFFFAOYSA-N

>  <HIPPO Compound ID>  (90) 
67721

>  <exports>  (90) 
['/opt/xchem-fragalysis-2/maxwin/BulkDock/OUTPUTS/primer_grip_n_pocket_fstein_bulkdock_input_split1000_batch000_217912.sdf', '/opt/xchem-fragalysis-2/maxwin/BulkDock/OUTPUTS/primer_grip_n_pocket_fstein_bulkdock_input_split1000_batch000_217912_fragalysis.sdf']

>  <fragmenstein_mode>  (90) 
expansion

>  <scratch_subdir>  (90) 
/opt/xchem-fragalysis-2/maxwin/BulkDock/SCRATCH/217912/C67721-P231

>  <ref_pdb>  (90) 
5f3z-a

>  <ref_mols>  (90) 
5hmz-a,5f3z-a

>  <original SMILES>  (90) 
Nc1c(CC(=O)O)cc(CC(=O)O)cc1-c1ccccc1

>  <alias>  (90) 
None

>  <tags>  (90) 
['Primer grip/N-pocket merge', 'Fragmenstein pure merge', 'DF curated YES', 'AC curated YES', 'Fragmenstein placed', 'acceptable']

>  <fragmenstein_outcome>  (90) 
acceptable

>  <csv_name>  (90) 
primer_grip_n_pocket_fstein_bulkdock_input_split1000_batch000.csv

>  <HIPPO Pose ID>  (90) 
82423

>  <SLURM_JOB_NAME>  (90) 
BulkDock.place:Flavi_NS5_RdRp:primer_grip_n_pocket_fstein_bulkdock_input_split1000_batch000

>  <fragmenstein_runtime>  (90) 
6.21844

>  <fragmenstein_error>  (90) 
None

>  <SLURM_JOB_ID>  (90) 
217912

>  <inchikey>  (90) 
KPCMUKYNNKXHMF-UHFFFAOYSA-N

$$$$
CITWUZFMFFTAGJ-JTQLQIEISA-N
     RDKit          3D

 17 19  0  0  0  0  0  0  0  0999 V2000
  -28.8441  -30.6402  -15.4851 C   0  0  0  0  0  0  0  0  0  0  0  0
  -27.7935  -29.7657  -15.8913 O   0  0  0  0  0  0  0  0  0  0  0  0
  -27.3276  -30.1054  -17.1500 C   0  0  0  0  0  0  0  0  0  0  0  0
  -25.9734  -30.4520  -17.2416 C   0  0  0  0  0  0  0  0  0  0  0  0
  -25.3996  -30.8575  -18.4569 C   0  0  0  0  0  0  0  0  0  0  0  0
  -23.9557  -31.3243  -18.4466 C   0  0  0  0  0  0  0  0  0  0  0  0
  -23.5650  -32.3784  -19.4937 C   0  0  2  0  0  0  0  0  0  0  0  0
  -22.4267  -33.2866  -19.0190 C   0  0  0  0  0  0  0  0  0  0  0  0
  -21.6459  -33.6399  -20.2806 C   0  0  0  0  0  0  0  0  0  0  0  0
  -22.3493  -32.9823  -21.3821 N   0  0  0  0  0  0  0  0  0  0  0  0
  -22.9858  -31.8054  -20.7799 C   0  0  0  0  0  0  0  0  0  0  0  0
  -26.1696  -30.8030  -19.6287 C   0  0  0  0  0  0  0  0  0  0  0  0
  -27.5134  -30.4127  -19.5310 C   0  0  0  0  0  0  0  0  0  0  0  0
  -28.4655  -30.2805  -20.5173 N   0  0  0  0  0  0  0  0  0  0  0  0
  -29.6660  -29.9246  -19.9696 C   0  0  0  0  0  0  0  0  0  0  0  0
  -29.4792  -29.7849  -18.6141 C   0  0  0  0  0  0  0  0  0  0  0  0
  -28.1192  -30.0797  -18.3182 C   0  0  0  0  0  0  0  0  0  0  0  0
  1  2  1  0
  2  3  1  0
  3  4  2  0
  4  5  1  0
  5  6  1  0
  7  6  1  1
  7  8  1  0
  8  9  1  0
  9 10  1  0
 10 11  1  0
  5 12  2  0
 12 13  1  0
 13 14  1  0
 14 15  1  0
 15 16  2  0
 16 17  1  0
 17  3  1  0
 11  7  1  0
 17 13  2  0
M  END
>  <energy_score>  (91) 
-16.32658

>  <name>  (91) 
CITWUZFMFFTAGJ-JTQLQIEISA-N

>  <distance_score>  (91) 
0.642756

>  <original ID>  (91) 
CITWUZFMFFTAGJ-JTQLQIEISA-N

>  <HIPPO Compound ID>  (91) 
66810

>  <exports>  (91) 
['/opt/xchem-fragalysis-2/maxwin/BulkDock/OUTPUTS/green_site_rna_tunnel_fstein_bulkdock_input_split1000_batch000_217965.sdf', '/opt/xchem-fragalysis-2/maxwin/BulkDock/OUTPUTS/green_site_rna_tunnel_fstein_bulkdock_input_fragalysis.sdf']

>  <fragmenstein_mode>  (91) 
expansion

>  <scratch_subdir>  (91) 
/opt/xchem-fragalysis-2/maxwin/BulkDock/SCRATCH/217965/C66810-P86

>  <ref_pdb>  (91) 
z0107a

>  <ref_mols>  (91) 
z0107a,z0309a

>  <original SMILES>  (91) 
COc1cc(C[C@@H]2CCNC2)cc2[nH]ccc12

>  <alias>  (91) 
None

>  <tags>  (91) 
['DF curated INTERESTING', 'Fragmenstein pure merge', 'Fragmenstein placed', 'Green Site/RNA tunnel merge', 'acceptable']

>  <fragmenstein_outcome>  (91) 
acceptable

>  <csv_name>  (91) 
green_site_rna_tunnel_fstein_bulkdock_input_split1000_batch000.csv

>  <HIPPO Pose ID>  (91) 
82996

>  <SLURM_JOB_NAME>  (91) 
BulkDock.place:Flavi_NS5_RdRp:green_site_rna_tunnel_fstein_bulkdock_input_split1000_batch000

>  <fragmenstein_runtime>  (91) 
1.982191

>  <fragmenstein_error>  (91) 
None

>  <SLURM_JOB_ID>  (91) 
217965

>  <inchikey>  (91) 
CITWUZFMFFTAGJ-JTQLQIEISA-N

$$$$
CITWUZFMFFTAGJ-JTQLQIEISA-N
     RDKit          3D

 17 19  0  0  0  0  0  0  0  0999 V2000
  -28.7374  -30.0979  -15.4893 C   0  0  0  0  0  0  0  0  0  0  0  0
  -27.4232  -30.4779  -15.8402 O   0  0  0  0  0  0  0  0  0  0  0  0
  -27.1152  -30.5140  -17.1967 C   0  0  0  0  0  0  0  0  0  0  0  0
  -25.7834  -30.9055  -17.4334 C   0  0  0  0  0  0  0  0  0  0  0  0
  -25.2454  -31.0039  -18.7210 C   0  0  0  0  0  0  0  0  0  0  0  0
  -23.8016  -31.4304  -18.8932 C   0  0  0  0  0  0  0  0  0  0  0  0
  -23.4443  -32.3470  -20.0799 C   0  0  2  0  0  0  0  0  0  0  0  0
  -23.4545  -33.8346  -19.7304 C   0  0  0  0  0  0  0  0  0  0  0  0
  -22.2574  -34.4523  -20.4415 C   0  0  0  0  0  0  0  0  0  0  0  0
  -21.7808  -33.4042  -21.3365 N   0  0  0  0  0  0  0  0  0  0  0  0
  -22.0214  -32.1591  -20.6012 C   0  0  0  0  0  0  0  0  0  0  0  0
  -26.0361  -30.6220  -19.8106 C   0  0  0  0  0  0  0  0  0  0  0  0
  -27.3820  -30.2991  -19.5825 C   0  0  0  0  0  0  0  0  0  0  0  0
  -28.3654  -30.0064  -20.5011 N   0  0  0  0  0  0  0  0  0  0  0  0
  -29.5654  -29.8577  -19.8720 C   0  0  0  0  0  0  0  0  0  0  0  0
  -29.3419  -29.9680  -18.5193 C   0  0  0  0  0  0  0  0  0  0  0  0
  -27.9590  -30.2560  -18.3064 C   0  0  0  0  0  0  0  0  0  0  0  0
  1  2  1  0
  2  3  1  0
  3  4  2  0
  4  5  1  0
  5  6  1  0
  7  6  1  1
  7  8  1  0
  8  9  1  0
  9 10  1  0
 10 11  1  0
  5 12  2  0
 12 13  1  0
 13 14  1  0
 14 15  1  0
 15 16  2  0
 16 17  1  0
 17  3  1  0
 11  7  1  0
 17 13  2  0
M  END
>  <energy_score>  (92) 
-14.669151

>  <name>  (92) 
CITWUZFMFFTAGJ-JTQLQIEISA-N

>  <distance_score>  (92) 
0.726161

>  <original ID>  (92) 
CITWUZFMFFTAGJ-JTQLQIEISA-N

>  <HIPPO Compound ID>  (92) 
66810

>  <exports>  (92) 
['/opt/xchem-fragalysis-2/maxwin/BulkDock/OUTPUTS/green_site_rna_tunnel_fstein_bulkdock_input_split1000_batch000_217965.sdf', '/opt/xchem-fragalysis-2/maxwin/BulkDock/OUTPUTS/green_site_rna_tunnel_fstein_bulkdock_input_fragalysis.sdf']

>  <fragmenstein_mode>  (92) 
expansion

>  <scratch_subdir>  (92) 
/opt/xchem-fragalysis-2/maxwin/BulkDock/SCRATCH/217965/C66810-P113

>  <ref_pdb>  (92) 
z0309a

>  <ref_mols>  (92) 
z0107a,z0309a

>  <original SMILES>  (92) 
COc1cc(C[C@@H]2CCNC2)cc2[nH]ccc12

>  <alias>  (92) 
None

>  <tags>  (92) 
['DF curated INTERESTING', 'Fragmenstein pure merge', 'Fragmenstein placed', 'Green Site/RNA tunnel merge', 'acceptable']

>  <fragmenstein_outcome>  (92) 
acceptable

>  <csv_name>  (92) 
green_site_rna_tunnel_fstein_bulkdock_input_split1000_batch000.csv

>  <HIPPO Pose ID>  (92) 
82997

>  <SLURM_JOB_NAME>  (92) 
BulkDock.place:Flavi_NS5_RdRp:green_site_rna_tunnel_fstein_bulkdock_input_split1000_batch000

>  <fragmenstein_runtime>  (92) 
2.527519

>  <fragmenstein_error>  (92) 
None

>  <SLURM_JOB_ID>  (92) 
217965

>  <inchikey>  (92) 
CITWUZFMFFTAGJ-JTQLQIEISA-N

$$$$
PHJBSTGCZPQCAF-UHFFFAOYSA-N
     RDKit          3D

 17 18  0  0  0  0  0  0  0  0999 V2000
  -26.1277  -31.2232  -21.4143 C   0  0  0  0  0  0  0  0  0  0  0  0
  -26.8038  -30.0325  -20.9229 N   0  0  0  0  0  0  0  0  0  0  0  0
  -28.0530  -30.2393  -20.2844 C   0  0  0  0  0  0  0  0  0  0  0  0
  -29.0555  -29.9978  -21.1470 N   0  0  0  0  0  0  0  0  0  0  0  0
  -30.2749  -29.8894  -20.6120 C   0  0  0  0  0  0  0  0  0  0  0  0
  -30.5234  -29.9834  -19.2558 C   0  0  0  0  0  0  0  0  0  0  0  0
  -29.4828  -30.2718  -18.3712 C   0  0  0  0  0  0  0  0  0  0  0  0
  -29.6829  -30.2845  -16.9769 C   0  0  0  0  0  0  0  0  0  0  0  0
  -28.6381  -30.6087  -16.1223 C   0  0  0  0  0  0  0  0  0  0  0  0
  -28.8052  -30.5425  -14.7950 F   0  0  0  0  0  0  0  0  0  0  0  0
  -27.4235  -31.0192  -16.6338 C   0  0  0  0  0  0  0  0  0  0  0  0
  -27.2077  -30.9771  -18.0142 C   0  0  0  0  0  0  0  0  0  0  0  0
  -28.2079  -30.5172  -18.9020 C   0  0  0  0  0  0  0  0  0  0  0  0
  -25.9414  -28.7682  -20.2805 S   0  0  0  0  0  0  0  0  0  0  0  0
  -25.1324  -28.1795  -21.5995 N   0  0  0  0  0  0  0  0  0  0  0  0
  -24.9426  -29.3020  -19.3933 O   0  0  0  0  0  0  0  0  0  0  0  0
  -26.8214  -27.7085  -19.8551 O   0  0  0  0  0  0  0  0  0  0  0  0
  1  2  1  0
  2  3  1  0
  3  4  2  0
  4  5  1  0
  5  6  2  0
  6  7  1  0
  7  8  2  0
  8  9  1  0
  9 10  1  0
  9 11  2  0
 11 12  1  0
 12 13  2  0
  2 14  1  0
 14 15  1  0
 14 16  2  0
 14 17  2  0
 13  3  1  0
 13  7  1  0
M  END
>  <energy_score>  (93) 
-68.064027

>  <name>  (93) 
PHJBSTGCZPQCAF-UHFFFAOYSA-N

>  <distance_score>  (93) 
0.94305

>  <original ID>  (93) 
PHJBSTGCZPQCAF-UHFFFAOYSA-N

>  <HIPPO Compound ID>  (93) 
66848

>  <exports>  (93) 
['/opt/xchem-fragalysis-2/maxwin/BulkDock/OUTPUTS/green_site_rna_tunnel_fstein_bulkdock_input_split1000_batch000_217965.sdf', '/opt/xchem-fragalysis-2/maxwin/BulkDock/OUTPUTS/green_site_rna_tunnel_fstein_bulkdock_input_fragalysis.sdf']

>  <fragmenstein_mode>  (93) 
expansion

>  <scratch_subdir>  (93) 
/opt/xchem-fragalysis-2/maxwin/BulkDock/SCRATCH/217965/C66848-P100

>  <ref_pdb>  (93) 
z0200a

>  <ref_mols>  (93) 
z0111a,z0200a

>  <original SMILES>  (93) 
CN(c1nccc2cc(F)ccc12)S(N)(=O)=O

>  <alias>  (93) 
None

>  <tags>  (93) 
['DF curated INTERESTING', 'Fragmenstein pure merge', 'Fragmenstein placed', 'Green Site/RNA tunnel merge', 'acceptable']

>  <fragmenstein_outcome>  (93) 
acceptable

>  <csv_name>  (93) 
green_site_rna_tunnel_fstein_bulkdock_input_split1000_batch000.csv

>  <HIPPO Pose ID>  (93) 
83036

>  <SLURM_JOB_NAME>  (93) 
BulkDock.place:Flavi_NS5_RdRp:green_site_rna_tunnel_fstein_bulkdock_input_split1000_batch000

>  <fragmenstein_runtime>  (93) 
1.25434

>  <fragmenstein_error>  (93) 
None

>  <SLURM_JOB_ID>  (93) 
217965

>  <inchikey>  (93) 
PHJBSTGCZPQCAF-UHFFFAOYSA-N

$$$$
