Zika_NS5A-x0651_A_1013_1_Zika_NS5A-x0437+A+1201+1
     RDKit          3D

 17 18  0  0  0  0  0  0  0  0999 V2000
    9.4670  -28.3330  -33.5770 F   0  0  0  0  0  0  0  0  0  0  0  0
   10.6340  -28.8840  -34.0070 C   0  0  0  0  0  0  0  0  0  0  0  0
   10.9090  -28.8750  -35.3490 C   0  0  0  0  0  0  0  0  0  0  0  0
   12.1200  -29.3910  -35.7740 C   0  0  0  0  0  0  0  0  0  0  0  0
   11.4960  -29.3930  -33.0770 C   0  0  0  0  0  0  0  0  0  0  0  0
   12.7030  -29.9060  -33.5150 C   0  0  0  0  0  0  0  0  0  0  0  0
   13.0460  -29.9010  -34.8640 C   0  0  0  0  0  0  0  0  0  0  0  0
   14.4360  -30.3880  -35.3000 C   0  0  1  0  0  0  0  0  0  0  0  0
   14.5090  -31.8810  -34.9270 C   0  0  0  0  0  0  0  0  0  0  0  0
   15.1930  -32.0740  -33.7970 O   0  0  0  0  0  0  0  0  0  0  0  0
   15.6180  -33.4340  -33.5310 C   0  0  0  0  0  0  0  0  0  0  0  0
   14.0010  -32.7690  -35.5550 O   0  0  0  0  0  0  0  0  0  0  0  0
   14.6920  -30.2080  -36.8170 C   0  0  0  0  0  0  0  0  0  0  0  0
   16.1430  -30.4380  -37.2260 C   0  0  0  0  0  0  0  0  0  0  0  0
   17.0520  -29.5380  -36.4160 C   0  0  0  0  0  0  0  0  0  0  0  0
   16.8920  -29.8190  -34.9850 N   0  0  0  0  0  0  0  0  0  0  0  0
   15.5210  -29.5620  -34.5570 C   0  0  0  0  0  0  0  0  0  0  0  0
 12  9  2  0
 10  9  1  0
 11 10  1  0
  8  9  1  1
  8  7  1  0
  7  4  2  0
  4  3  1  0
  3  2  2  0
  2  1  1  0
  5  2  1  0
  6  5  2  0
  7  6  1  0
  8 17  1  0
 17 16  1  0
 16 15  1  0
 15 14  1  0
 14 13  1  0
 13  8  1  0
M  END
$$$$

