DNV2_NS5A-x0587_A_1801_1_DNV2_NS5A-x0249+A+1707+1
     RDKit          3D

 15 16  0  0  0  0  0  0  0  0999 V2000
   -9.6800  -71.2580  -17.3890 Cl  0  0  0  0  0  0  0  0  0  0  0  0
   -9.7600  -71.2390  -19.1270 C   0  0  0  0  0  0  0  0  0  0  0  0
  -10.8380  -70.5820  -19.7040 C   0  0  0  0  0  0  0  0  0  0  0  0
  -10.8020  -70.0660  -20.9340 N   0  0  0  0  0  0  0  0  0  0  0  0
   -9.6570  -70.2200  -21.5840 C   0  0  0  0  0  0  0  0  0  0  0  0
   -8.5510  -70.8270  -21.1560 N   0  0  0  0  0  0  0  0  0  0  0  0
   -8.6130  -71.3480  -19.9200 C   0  0  0  0  0  0  0  0  0  0  0  0
   -7.5070  -72.0570  -19.5180 N   0  0  0  0  0  0  0  0  0  0  0  0
   -7.4030  -72.7710  -18.2490 C   0  0  0  0  0  0  0  0  0  0  0  0
   -6.3570  -72.1930  -20.4120 C   0  0  0  0  0  0  0  0  0  0  0  0
   -4.9870  -71.8380  -19.8190 C   0  0  2  0  0  0  0  0  0  0  0  0
   -4.7880  -70.3350  -19.5900 C   0  0  0  0  0  0  0  0  0  0  0  0
   -3.4450  -70.0410  -19.9630 O   0  0  0  0  0  0  0  0  0  0  0  0
   -3.1820  -70.8560  -21.0840 C   0  0  0  0  0  0  0  0  0  0  0  0
   -3.8210  -72.1860  -20.7670 C   0  0  0  0  0  0  0  0  0  0  0  0
  9  8  1  0
 10  8  1  0
 11 10  1  6
 11 15  1  0
 15 14  1  0
 14 13  1  0
 13 12  1  0
 12 11  1  0
  8  7  1  0
  7  6  2  0
  6  5  1  0
  5  4  2  0
  4  3  1  0
  3  2  2  0
  7  2  1  0
  2  1  1  0
M  END
$$$$

