6izx_A_913_1_6izz+A+903+1
     RDKit          3D

 14 15  0  0  0  0  0  0  0  0999 V2000
  -30.1910  -60.3780  -22.2170 C   0  0  0  0  0  0  0  0  0  0  0  0
  -27.7530  -61.2580  -22.0470 C   0  0  0  0  0  0  0  0  0  0  0  0
  -22.8270  -63.0240  -23.2090 C   0  0  0  0  0  0  0  0  0  0  0  0
  -24.0290  -63.1370  -22.2890 C   0  0  0  0  0  0  0  0  0  0  0  0
  -25.4230  -61.4060  -21.4090 C   0  0  0  0  0  0  0  0  0  0  0  0
  -25.4720  -60.0940  -20.8070 C   0  0  0  0  0  0  0  0  0  0  0  0
  -26.6710  -59.3680  -20.8480 C   0  0  0  0  0  0  0  0  0  0  0  0
  -27.8020  -59.9110  -21.4330 C   0  0  0  0  0  0  0  0  0  0  0  0
  -26.5750  -61.9680  -22.0150 C   0  0  0  0  0  0  0  0  0  0  0  0
  -24.7450  -64.0940  -22.3420 O   0  0  0  0  0  0  0  0  0  0  0  0
  -24.2110  -62.1110  -21.3560 O   0  0  0  0  0  0  0  0  0  0  0  0
  -29.3320  -59.3090  -21.6300 O   0  0  0  0  0  0  0  0  0  0  0  0
  -31.3770  -60.3420  -22.3270 O   0  0  0  0  0  0  0  0  0  0  0  0
  -29.2240  -61.6140  -22.6690 S   0  0  0  0  0  0  0  0  0  0  0  0
 12  8  1  0
 12  1  1  0
  7  8  2  0
  7  6  1  0
 13  1  2  0
  8  2  1  0
  1 14  1  0
  6  5  2  0
  2 14  1  0
  2  9  2  0
  5  9  1  0
  5 11  1  0
 11  4  1  0
  4 10  2  0
  4  3  1  0
M  END
$$$$

