5hmz_A_1003_1_5i3p+A+1003+1
     RDKit          3D

 25 26  0  0  0  0  0  0  0  0999 V2000
  -16.3850  -44.4800  -19.4840 C   0  0  0  0  0  0  0  0  0  0  0  0
  -15.4090  -43.7600  -18.7960 C   0  0  0  0  0  0  0  0  0  0  0  0
  -14.4300  -43.0430  -19.5080 C   0  0  0  0  0  0  0  0  0  0  0  0
  -17.4350  -45.3200  -21.5580 C   0  0  0  0  0  0  0  0  0  0  0  0
  -19.0280  -46.3480  -23.1160 C   0  0  0  0  0  0  0  0  0  0  0  0
  -18.8540  -47.0840  -22.0150 C   0  0  0  0  0  0  0  0  0  0  0  0
  -17.9480  -46.5100  -21.1130 C   0  0  0  0  0  0  0  0  0  0  0  0
  -19.8180  -46.5800  -24.2700 C   0  0  0  0  0  0  0  0  0  0  0  0
  -15.7600  -42.1920  -14.5030 C   0  0  0  0  0  0  0  0  0  0  0  0
  -20.3920  -46.6600  -25.3100 C   0  0  0  0  0  0  0  0  0  0  0  0
  -20.9050  -46.7000  -26.6790 C   0  0  0  0  0  0  0  0  0  0  0  0
  -14.4930  -43.0500  -20.9000 C   0  0  0  0  0  0  0  0  0  0  0  0
  -15.4710  -43.7740  -21.5760 C   0  0  0  0  0  0  0  0  0  0  0  0
  -16.4260  -44.5080  -20.8730 C   0  0  0  0  0  0  0  0  0  0  0  0
  -15.5340  -43.7620  -17.3110 C   0  0  0  0  0  0  0  0  0  0  0  0
  -13.3210  -42.2770  -18.8210 C   0  0  0  0  0  0  0  0  0  0  0  0
  -15.4260  -43.7880  -22.9480 O   0  0  0  0  0  0  0  0  0  0  0  0
  -14.4150  -43.0450  -23.6430 C   0  0  0  0  0  0  0  0  0  0  0  0
  -14.6650  -44.2930  -16.6210 O   0  0  0  0  0  0  0  0  0  0  0  0
  -16.6530  -43.1520  -16.7890 N   0  0  0  0  0  0  0  0  0  0  0  0
  -18.0850  -44.9220  -23.0680 S   0  0  0  0  0  0  0  0  0  0  0  0
  -17.0310  -43.1020  -15.2300 S   0  0  0  0  0  0  0  0  0  0  0  0
  -16.9840  -44.4180  -14.7500 O   0  0  0  0  0  0  0  0  0  0  0  0
  -18.2330  -42.3530  -15.1500 O   0  0  0  0  0  0  0  0  0  0  0  0
  -22.1670  -46.0800  -26.7690 O   0  0  0  0  0  0  0  0  0  0  0  0
 25 11  1  0
 11 10  1  0
 10  8  3  0
  8  5  1  0
  5  6  2  0
  5 21  1  0
  6  7  1  0
  7  4  2  0
 21  4  1  0
  4 14  1  0
 14  1  2  0
 14 13  1  0
 17 13  1  0
 17 18  1  0
  1  2  1  0
 13 12  2  0
  2 15  1  0
  2  3  2  0
 12  3  1  0
 23 22  2  0
 20 15  1  0
 20 22  1  0
 15 19  2  0
 24 22  2  0
  3 16  1  0
 22  9  1  0
M  END
$$$$

