DNV2_NS5A-x0693_A_1707_1_DNV2_NS5A-x0249+A+1707+1
     RDKit          3D

 18 20  0  0  0  0  0  0  0  0999 V2000
   -2.3110  -67.9860  -21.6070 N   0  0  0  0  0  0  0  0  0  0  0  0
   -2.9640  -68.7750  -21.1030 C   0  0  0  0  0  0  0  0  0  0  0  0
   -3.8140  -69.7360  -20.4460 C   0  0  0  0  0  0  0  0  0  0  0  0
   -4.6120  -69.3470  -19.3720 C   0  0  0  0  0  0  0  0  0  0  0  0
   -5.5100  -70.2430  -18.8180 C   0  0  0  0  0  0  0  0  0  0  0  0
   -5.6390  -71.5320  -19.3160 C   0  0  0  0  0  0  0  0  0  0  0  0
   -4.8090  -71.9230  -20.3580 C   0  0  0  0  0  0  0  0  0  0  0  0
   -3.9060  -71.0410  -20.9250 C   0  0  0  0  0  0  0  0  0  0  0  0
   -6.7120  -72.4560  -18.7930 C   0  0  0  0  0  0  0  0  0  0  0  0
   -8.0110  -71.7960  -18.6230 N   0  0  0  0  0  0  0  0  0  0  0  0
   -8.7840  -71.2310  -19.6250 C   0  0  0  0  0  0  0  0  0  0  0  0
   -9.9350  -70.7680  -18.9880 C   0  0  0  0  0  0  0  0  0  0  0  0
   -9.8640  -71.0320  -17.6160 N   0  0  0  0  0  0  0  0  0  0  0  0
   -8.7120  -71.6350  -17.4630 C   0  0  0  0  0  0  0  0  0  0  0  0
   -8.5850  -71.0810  -20.9910 C   0  0  0  0  0  0  0  0  0  0  0  0
   -9.5870  -70.4570  -21.7250 C   0  0  0  0  0  0  0  0  0  0  0  0
  -10.7500  -70.0010  -21.1060 C   0  0  0  0  0  0  0  0  0  0  0  0
  -10.9350  -70.1490  -19.7360 C   0  0  0  0  0  0  0  0  0  0  0  0
  2  1  3  0
  3  2  1  0
  3  8  2  0
  8  7  1  0
  7  6  2  0
  9  6  1  0
 10  9  1  0
 10 14  1  0
 14 13  2  0
 13 12  1  0
 12 18  2  0
 18 17  1  0
 17 16  2  0
 16 15  1  0
 15 11  2  0
 11 10  1  0
 12 11  1  0
  6  5  1  0
  5  4  2  0
  4  3  1  0
M  END
$$$$

