DNV2_NS5A-x0250_A_1701_1_DNV2_NS5A-x0250+A+1701+1
     RDKit          3D

 15 16  0  0  0  0  0  0  0  0999 V2000
  -34.6600  -47.6570  -23.9080 O   0  0  0  0  0  0  0  0  0  0  0  0
  -35.2790  -48.7030  -24.0780 C   0  0  0  0  0  0  0  0  0  0  0  0
  -36.1400  -49.3010  -23.0030 C   0  0  0  0  0  0  0  0  0  0  0  0
  -35.2200  -49.3850  -25.2670 N   0  0  0  0  0  0  0  0  0  0  0  0
  -35.8400  -50.5630  -25.6690 C   0  0  0  0  0  0  0  0  0  0  0  0
  -36.1920  -51.5630  -24.8880 N   0  0  0  0  0  0  0  0  0  0  0  0
  -36.6910  -52.5350  -25.7660 C   0  0  0  0  0  0  0  0  0  0  0  0
  -36.6260  -52.0840  -27.0850 C   0  0  0  0  0  0  0  0  0  0  0  0
  -36.0850  -50.8050  -27.0130 N   0  0  0  0  0  0  0  0  0  0  0  0
  -35.8660  -49.9310  -28.1790 C   0  0  0  0  0  0  0  0  0  0  0  0
  -37.1540  -49.3590  -28.7040 C   0  0  0  0  0  0  0  0  0  0  0  0
  -37.0290  -52.8730  -28.1560 C   0  0  0  0  0  0  0  0  0  0  0  0
  -37.5120  -54.1460  -27.8780 C   0  0  0  0  0  0  0  0  0  0  0  0
  -37.5900  -54.6100  -26.5640 C   0  0  0  0  0  0  0  0  0  0  0  0
  -37.1830  -53.8120  -25.5000 C   0  0  0  0  0  0  0  0  0  0  0  0
 11 10  1  0
 10  9  1  0
  9  5  1  0
  5  4  1  0
  4  2  1  0
  2  1  2  0
  3  2  1  0
  6  5  2  0
  7  6  1  0
  7 15  2  0
 15 14  1  0
 14 13  2  0
 13 12  1  0
 12  8  2  0
  9  8  1  0
  8  7  1  0
M  END
$$$$

