DNV2_NS5A-x0503_A_2101_1_DNV2_NS5A-x0249+A+1707+1
     RDKit          3D

 14 15  0  0  0  0  0  0  0  0999 V2000
   -6.9400  -73.2130  -20.3990 O   0  0  0  0  0  0  0  0  0  0  0  0
   -6.9300  -72.2400  -19.3640 S   0  0  0  0  0  0  0  0  0  0  0  0
   -6.8970  -72.6270  -17.9980 O   0  0  0  0  0  0  0  0  0  0  0  0
   -8.1930  -71.2890  -19.5840 N   0  0  0  0  0  0  0  0  0  0  0  0
   -9.4630  -71.4790  -18.8540 C   0  0  0  0  0  0  0  0  0  0  0  0
  -10.3910  -70.4830  -19.5120 C   0  0  0  0  0  0  0  0  0  0  0  0
   -9.9080  -70.4040  -20.9270 C   0  0  0  0  0  0  0  0  0  0  0  0
   -8.4000  -70.5270  -20.8340 C   0  0  0  0  0  0  0  0  0  0  0  0
   -5.7140  -71.2340  -19.6310 N   0  0  0  0  0  0  0  0  0  0  0  0
   -5.1860  -70.0520  -18.8990 C   0  0  0  0  0  0  0  0  0  0  0  0
   -4.6810  -71.0910  -20.6910 C   0  0  0  0  0  0  0  0  0  0  0  0
   -4.5020  -69.6430  -20.2120 C   0  0  0  0  0  0  0  0  0  0  0  0
   -3.1070  -69.3860  -20.0510 O   0  0  0  0  0  0  0  0  0  0  0  0
   -2.3910  -69.3530  -21.2680 C   0  0  0  0  0  0  0  0  0  0  0  0
 14 13  1  0
 13 12  1  0
 12 10  1  0
 10  9  1  0
 11  9  1  0
 12 11  1  0
  9  2  1  0
  3  2  2  0
  2  1  2  0
  4  2  1  0
  4  8  1  0
  8  7  1  0
  7  6  1  0
  6  5  1  0
  5  4  1  0
M  END
$$$$

