Zika_NS5A-x0903_A_1301_1_Zika_NS5A-x0411+A+1104+1
     RDKit          3D

 15 17  0  0  0  0  0  0  0  0999 V2000
  -14.8930  -12.8390  -18.0810 O   0  0  0  0  0  0  0  0  0  0  0  0
  -13.7410  -12.5560  -18.3760 C   0  0  0  0  0  0  0  0  0  0  0  0
  -12.9110  -11.7150  -17.6980 N   0  0  0  0  0  0  0  0  0  0  0  0
  -12.9690  -13.0900  -19.5940 C   0  0  2  0  0  0  0  0  0  0  0  0
  -11.6930  -12.4120  -19.4040 N   0  0  0  0  0  0  0  0  0  0  0  0
  -11.6720  -11.6180  -18.3090 C   0  0  0  0  0  0  0  0  0  0  0  0
  -10.7440  -10.9230  -17.9120 O   0  0  0  0  0  0  0  0  0  0  0  0
  -13.6290  -12.8470  -20.9330 C   0  0  0  0  0  0  0  0  0  0  0  0
  -14.2970  -13.9940  -21.3360 C   0  0  0  0  0  0  0  0  0  0  0  0
  -14.1060  -15.1000  -20.3310 C   0  0  0  0  0  0  0  0  0  0  0  0
  -12.8820  -14.6290  -19.5380 C   0  0  0  0  0  0  0  0  0  0  0  0
  -13.6320  -11.7120  -21.7320 C   0  0  0  0  0  0  0  0  0  0  0  0
  -14.3130  -11.7340  -22.9420 C   0  0  0  0  0  0  0  0  0  0  0  0
  -14.9850  -12.8740  -23.3440 C   0  0  0  0  0  0  0  0  0  0  0  0
  -14.9810  -14.0030  -22.5450 C   0  0  0  0  0  0  0  0  0  0  0  0
  7  6  2  0
  6  3  1  0
  3  2  1  0
  2  1  2  0
  4  2  1  0
  4 11  1  1
 11 10  1  0
 10  9  1  0
  9 15  2  0
 15 14  1  0
 14 13  2  0
 13 12  1  0
 12  8  2  0
  9  8  1  0
  8  4  1  0
  5  4  1  0
  6  5  1  0
M  END
$$$$

