z0215a
     RDKit          3D

 12 13  0  0  0  0  0  0  0  0999 V2000
  -28.0730  -30.6860  -14.1880 F   0  0  0  0  0  0  0  0  0  0  0  0
  -28.0780  -30.4490  -15.5200 C   0  0  0  0  0  0  0  0  0  0  0  0
  -29.2700  -30.2450  -16.1640 C   0  0  0  0  0  0  0  0  0  0  0  0
  -29.3240  -30.0520  -17.4900 N   0  0  0  0  0  0  0  0  0  0  0  0
  -28.1640  -30.0640  -18.1700 C   0  0  0  0  0  0  0  0  0  0  0  0
  -26.9290  -30.2510  -17.5590 C   0  0  0  0  0  0  0  0  0  0  0  0
  -26.8960  -30.4490  -16.1920 C   0  0  0  0  0  0  0  0  0  0  0  0
  -28.2710  -29.9050  -19.6250 C   0  0  0  0  0  0  0  0  0  0  0  0
  -29.4610  -29.8240  -20.2350 N   0  0  0  0  0  0  0  0  0  0  0  0
  -29.1770  -29.6760  -21.5490 N   0  0  0  0  0  0  0  0  0  0  0  0
  -27.8590  -29.6660  -21.7770 C   0  0  0  0  0  0  0  0  0  0  0  0
  -27.2340  -29.8110  -20.5710 C   0  0  0  0  0  0  0  0  0  0  0  0
  2  1  1  0
  2  7  2  0
  7  6  1  0
  6  5  2  0
  5  4  1  0
  4  3  2  0
  3  2  1  0
  8  5  1  0
  8 12  1  0
 12 11  2  0
 11 10  1  0
 10  9  1  0
  9  8  2  0
M  END
>  <id>  (1) 
104

>  <inchikey>  (1) 
ADBMBWBQQBJNNZ-UHFFFAOYSA-N

>  <alias>  (1) 
z0215a

>  <smiles>  (1) 
Fc1ccc(-c2cc[nH]n2)nc1

>  <path>  (1) 
/opt/xchem-fragalysis-2/maxwin/BulkDock/TARGETS/Flavi_NS5_RdRp/aligned_files/z0215a/z0215a.pdb

>  <distance_score>  (1) 
None

>  <energy_score>  (1) 
None

>  <compound>  (1) 
ADBMBWBQQBJNNZ-UHFFFAOYSA-N

>  <compound_id>  (1) 
82

>  <target>  (1) 
Flavi_NS5_RdRp

$$$$
z1018a
     RDKit          3D

 18 19  0  0  0  0  0  0  0  0999 V2000
  -24.6370  -32.9720  -24.2020 O   0  0  0  0  0  0  0  0  0  0  0  0
  -23.4380  -33.0890  -24.0000 C   0  0  0  0  0  0  0  0  0  0  0  0
  -22.4420  -33.7780  -24.8910 C   0  0  0  0  0  0  0  0  0  0  0  0
  -21.0850  -33.4100  -24.3100 C   0  0  0  0  0  0  0  0  0  0  0  0
  -21.3630  -32.9570  -22.8880 C   0  0  0  0  0  0  0  0  0  0  0  0
  -22.7850  -32.6050  -22.9240 N   0  0  0  0  0  0  0  0  0  0  0  0
  -23.4200  -31.7770  -21.8880 C   0  0  0  0  0  0  0  0  0  0  0  0
  -24.3470  -32.5530  -20.9610 C   0  0  0  0  0  0  0  0  0  0  0  0
  -25.4880  -31.7690  -20.4960 N   0  0  0  0  0  0  0  0  0  0  0  0
  -26.3340  -31.1610  -21.3620 C   0  0  0  0  0  0  0  0  0  0  0  0
  -26.1830  -31.2570  -22.5750 O   0  0  0  0  0  0  0  0  0  0  0  0
  -27.3860  -30.4590  -20.8200 N   0  0  0  0  0  0  0  0  0  0  0  0
  -27.8020  -30.2930  -19.4750 C   0  0  0  0  0  0  0  0  0  0  0  0
  -26.9510  -30.0480  -18.4030 C   0  0  0  0  0  0  0  0  0  0  0  0
  -27.4770  -29.8290  -17.1390 C   0  0  0  0  0  0  0  0  0  0  0  0
  -28.8380  -29.8380  -16.9390 C   0  0  0  0  0  0  0  0  0  0  0  0
  -29.6850  -30.0770  -17.9990 C   0  0  0  0  0  0  0  0  0  0  0  0
  -29.1740  -30.3100  -19.2640 C   0  0  0  0  0  0  0  0  0  0  0  0
 11 10  2  0
 10  9  1  0
  9  8  1  0
  8  7  1  0
  7  6  1  0
  6  5  1  0
  5  4  1  0
  4  3  1  0
  3  2  1  0
  6  2  1  0
  2  1  2  0
 12 10  1  0
 13 12  1  0
 13 18  2  0
 18 17  1  0
 17 16  2  0
 16 15  1  0
 15 14  2  0
 14 13  1  0
M  END
>  <id>  (2) 
206

>  <inchikey>  (2) 
OYRHWZOYGOUXNC-UHFFFAOYSA-N

>  <alias>  (2) 
z1018a

>  <smiles>  (2) 
O=C(NCCN1CCCC1=O)Nc1ccccc1

>  <path>  (2) 
/opt/xchem-fragalysis-2/maxwin/BulkDock/TARGETS/Flavi_NS5_RdRp/aligned_files/z1018a/z1018a.pdb

>  <distance_score>  (2) 
None

>  <energy_score>  (2) 
None

>  <compound>  (2) 
OYRHWZOYGOUXNC-UHFFFAOYSA-N

>  <compound_id>  (2) 
144

>  <target>  (2) 
Flavi_NS5_RdRp

$$$$
