z0628a
     RDKit          3D

 10 10  0  0  0  0  0  0  0  0999 V2000
  -29.1830  -29.3890  -20.8360 O   0  0  0  0  0  0  0  0  0  0  0  0
  -28.1970  -29.5270  -20.1600 C   0  0  0  0  0  0  0  0  0  0  0  0
  -26.9720  -29.6660  -20.6670 O   0  0  0  0  0  0  0  0  0  0  0  0
  -26.4790  -31.0340  -20.7950 C   0  0  0  0  0  0  0  0  0  0  0  0
  -26.0580  -31.2330  -22.1800 C   0  0  0  0  0  0  0  0  0  0  0  0
  -28.1980  -29.5800  -18.6890 C   0  0  0  0  0  0  0  0  0  0  0  0
  -27.1200  -29.2890  -17.8670 C   0  0  0  0  0  0  0  0  0  0  0  0
  -27.5350  -29.4600  -16.6080 N   0  0  0  0  0  0  0  0  0  0  0  0
  -28.8280  -29.8460  -16.5440 N   0  0  0  0  0  0  0  0  0  0  0  0
  -29.2380  -29.9220  -17.8060 C   0  0  0  0  0  0  0  0  0  0  0  0
  5  4  1  0
  4  3  1  0
  3  2  1  0
  2  1  2  0
  6  2  1  0
  6 10  1  0
 10  9  2  0
  9  8  1  0
  8  7  1  0
  7  6  2  0
M  END
>  <id>  (1) 
150

>  <inchikey>  (1) 
KACZQOKEFKFNDB-UHFFFAOYSA-N

>  <alias>  (1) 
z0628a

>  <smiles>  (1) 
CCOC(=O)c1cn[nH]c1

>  <path>  (1) 
/opt/xchem-fragalysis-2/maxwin/BulkDock/TARGETS/Flavi_NS5_RdRp/aligned_files/z0628a/z0628a.pdb

>  <distance_score>  (1) 
None

>  <energy_score>  (1) 
None

>  <compound>  (1) 
KACZQOKEFKFNDB-UHFFFAOYSA-N

>  <compound_id>  (1) 
112

>  <target>  (1) 
Flavi_NS5_RdRp

$$$$
z0637a
     RDKit          3D

 14 15  0  0  0  0  0  0  0  0999 V2000
  -29.6920  -30.0390  -19.3490 C   0  0  0  0  0  0  0  0  0  0  0  0
  -28.5950  -29.8640  -18.3510 C   0  0  0  0  0  0  0  0  0  0  0  0
  -27.3390  -29.9320  -18.8240 N   0  0  0  0  0  0  0  0  0  0  0  0
  -26.3240  -29.9050  -17.9430 C   0  0  0  0  0  0  0  0  0  0  0  0
  -26.5060  -29.7820  -16.5610 C   0  0  0  0  0  0  0  0  0  0  0  0
  -27.8040  -29.6930  -16.0930 C   0  0  0  0  0  0  0  0  0  0  0  0
  -28.8610  -29.7290  -16.9880 C   0  0  0  0  0  0  0  0  0  0  0  0
  -25.0850  -30.1020  -18.4480 N   0  0  0  0  0  0  0  0  0  0  0  0
  -24.6730  -31.3810  -18.9680 C   0  0  0  0  0  0  0  0  0  0  0  0
  -23.2240  -31.6790  -18.6300 C   0  0  2  0  0  0  0  0  0  0  0  0
  -22.7780  -33.0850  -19.0340 C   0  0  0  0  0  0  0  0  0  0  0  0
  -21.9460  -33.6580  -17.9330 N   0  0  0  0  0  0  0  0  0  0  0  0
  -21.7130  -32.5810  -16.9560 C   0  0  0  0  0  0  0  0  0  0  0  0
  -22.9510  -31.6590  -17.1210 C   0  0  0  0  0  0  0  0  0  0  0  0
  2  1  1  0
  2  7  2  0
  7  6  1  0
  6  5  2  0
  5  4  1  0
  8  4  1  0
  9  8  1  0
 10  9  1  1
 10 14  1  0
 14 13  1  0
 13 12  1  0
 12 11  1  0
 11 10  1  0
  4  3  2  0
  3  2  1  0
M  END
>  <id>  (2) 
151

>  <inchikey>  (2) 
GOGVDMSQODUATE-JTQLQIEISA-N

>  <alias>  (2) 
z0637a

>  <smiles>  (2) 
Cc1cccc(NC[C@H]2CCNC2)n1

>  <path>  (2) 
/opt/xchem-fragalysis-2/maxwin/BulkDock/TARGETS/Flavi_NS5_RdRp/aligned_files/z0637a/z0637a.pdb

>  <distance_score>  (2) 
None

>  <energy_score>  (2) 
None

>  <compound>  (2) 
GOGVDMSQODUATE-UHFFFAOYSA-N

>  <compound_id>  (2) 
113

>  <target>  (2) 
Flavi_NS5_RdRp

$$$$
