z0215a
     RDKit          3D

 12 13  0  0  0  0  0  0  0  0999 V2000
  -28.0730  -30.6860  -14.1880 F   0  0  0  0  0  0  0  0  0  0  0  0
  -28.0780  -30.4490  -15.5200 C   0  0  0  0  0  0  0  0  0  0  0  0
  -29.2700  -30.2450  -16.1640 C   0  0  0  0  0  0  0  0  0  0  0  0
  -29.3240  -30.0520  -17.4900 N   0  0  0  0  0  0  0  0  0  0  0  0
  -28.1640  -30.0640  -18.1700 C   0  0  0  0  0  0  0  0  0  0  0  0
  -26.9290  -30.2510  -17.5590 C   0  0  0  0  0  0  0  0  0  0  0  0
  -26.8960  -30.4490  -16.1920 C   0  0  0  0  0  0  0  0  0  0  0  0
  -28.2710  -29.9050  -19.6250 C   0  0  0  0  0  0  0  0  0  0  0  0
  -29.4610  -29.8240  -20.2350 N   0  0  0  0  0  0  0  0  0  0  0  0
  -29.1770  -29.6760  -21.5490 N   0  0  0  0  0  0  0  0  0  0  0  0
  -27.8590  -29.6660  -21.7770 C   0  0  0  0  0  0  0  0  0  0  0  0
  -27.2340  -29.8110  -20.5710 C   0  0  0  0  0  0  0  0  0  0  0  0
  2  1  1  0
  2  7  2  0
  7  6  1  0
  6  5  2  0
  5  4  1  0
  4  3  2  0
  3  2  1  0
  8  5  1  0
  8 12  1  0
 12 11  2  0
 11 10  1  0
 10  9  1  0
  9  8  2  0
M  END
>  <id>  (1) 
104

>  <inchikey>  (1) 
ADBMBWBQQBJNNZ-UHFFFAOYSA-N

>  <alias>  (1) 
z0215a

>  <smiles>  (1) 
Fc1ccc(-c2cc[nH]n2)nc1

>  <path>  (1) 
/opt/xchem-fragalysis-2/maxwin/BulkDock/TARGETS/Flavi_NS5_RdRp/aligned_files/z0215a/z0215a.pdb

>  <distance_score>  (1) 
None

>  <energy_score>  (1) 
None

>  <compound>  (1) 
ADBMBWBQQBJNNZ-UHFFFAOYSA-N

>  <compound_id>  (1) 
82

>  <target>  (1) 
Flavi_NS5_RdRp

$$$$
3vws-a
     RDKit          3D

 24 26  0  0  0  0  0  0  0  0999 V2000
  -26.7260  -28.5030  -20.2290 Cl  0  0  0  0  0  0  0  0  0  0  0  0
  -26.3420  -30.1380  -19.6870 C   0  0  0  0  0  0  0  0  0  0  0  0
  -27.1730  -30.5900  -18.6680 C   0  0  0  0  0  0  0  0  0  0  0  0
  -26.9720  -31.8610  -18.1400 C   0  0  0  0  0  0  0  0  0  0  0  0
  -25.2990  -30.9420  -20.2270 C   0  0  0  0  0  0  0  0  0  0  0  0
  -25.1090  -32.2420  -19.6830 C   0  0  0  0  0  0  0  0  0  0  0  0
  -25.9680  -32.7080  -18.6110 C   0  0  0  0  0  0  0  0  0  0  0  0
  -25.8660  -34.1300  -17.8450 S   0  0  0  0  0  0  0  0  0  0  0  0
  -26.9300  -35.1090  -17.9600 O   0  0  0  0  0  0  0  0  0  0  0  0
  -25.1250  -34.9060  -18.8310 O   0  0  0  0  0  0  0  0  0  0  0  0
  -24.6750  -34.2200  -16.7840 N   0  0  0  0  0  0  0  0  0  0  0  0
  -23.4960  -33.5330  -16.6760 C   0  0  0  0  0  0  0  0  0  0  0  0
  -22.4850  -33.5910  -17.6800 C   0  0  0  0  0  0  0  0  0  0  0  0
  -21.2550  -32.9000  -17.4970 C   0  0  0  0  0  0  0  0  0  0  0  0
  -23.2770  -32.7760  -15.4720 C   0  0  0  0  0  0  0  0  0  0  0  0
  -22.0400  -32.0890  -15.2880 C   0  0  0  0  0  0  0  0  0  0  0  0
  -21.4420  -31.2650  -14.2800 C   0  0  0  0  0  0  0  0  0  0  0  0
  -22.1160  -30.8650  -12.9730 C   0  0  0  0  0  0  0  0  0  0  0  0
  -23.2530  -31.2820  -12.6450 O   0  0  0  0  0  0  0  0  0  0  0  0
  -21.5200  -30.0570  -12.2170 O   0  0  0  0  0  0  0  0  0  0  0  0
  -21.0530  -32.1600  -16.2940 C   0  0  0  0  0  0  0  0  0  0  0  0
  -19.9760  -31.4690  -15.9630 O   0  0  0  0  0  0  0  0  0  0  0  0
  -20.1540  -30.9040  -14.7170 C   0  0  0  0  0  0  0  0  0  0  0  0
  -19.0000  -30.0710  -14.1720 C   0  0  0  0  0  0  0  0  0  0  0  0
  9  8  2  0
 10  8  2  0
  8  7  1  0
  8 11  1  0
  7  4  2  0
  7  6  1  0
  4  3  1  0
  6  5  2  0
 11 12  1  0
  3  2  2  0
  5  2  1  0
  2  1  1  0
 12 13  2  0
 12 15  1  0
 13 14  1  0
 15 16  2  0
 14 21  2  0
 16 21  1  0
 16 17  1  0
 21 22  1  0
 19 18  2  0
 17 18  1  0
 17 23  2  0
 22 23  1  0
 18 20  1  0
 23 24  1  0
M  END
>  <id>  (2) 
218

>  <inchikey>  (2) 
UZVVWRBCUSWUON-UHFFFAOYSA-N

>  <alias>  (2) 
3vws-a

>  <smiles>  (2) 
Cc1oc2ccc(NS(=O)(=O)c3ccc(Cl)cc3)cc2c1C(=O)O

>  <path>  (2) 
/opt/xchem-fragalysis-2/maxwin/BulkDock/TARGETS/Flavi_NS5_RdRp/aligned_files/3vws-a/3vws-a.pdb

>  <distance_score>  (2) 
None

>  <energy_score>  (2) 
None

>  <compound>  (2) 
UZVVWRBCUSWUON-UHFFFAOYSA-N

>  <compound_id>  (2) 
154

>  <target>  (2) 
Flavi_NS5_RdRp

$$$$
