z0165a
     RDKit          3D

 15 16  0  0  0  0  0  0  0  0999 V2000
  -25.6460  -27.2190  -21.1790 O   0  0  0  0  0  0  0  0  0  0  0  0
  -24.8380  -27.1140  -19.9960 S   0  0  0  0  0  0  0  0  0  0  0  0
  -23.4670  -27.5250  -20.0670 O   0  0  0  0  0  0  0  0  0  0  0  0
  -24.8330  -25.5810  -19.5430 N   0  0  0  0  0  0  0  0  0  0  0  0
  -25.6200  -28.0730  -18.7330 C   0  0  0  0  0  0  0  0  0  0  0  0
  -25.0150  -28.1970  -17.4920 C   0  0  0  0  0  0  0  0  0  0  0  0
  -25.6060  -28.9910  -16.5260 C   0  0  0  0  0  0  0  0  0  0  0  0
  -26.8180  -28.7170  -19.0090 C   0  0  0  0  0  0  0  0  0  0  0  0
  -27.4190  -29.5030  -18.0240 C   0  0  0  0  0  0  0  0  0  0  0  0
  -28.6410  -30.1050  -18.2840 N   0  0  0  0  0  0  0  0  0  0  0  0
  -29.2030  -30.0970  -19.6300 C   0  0  0  0  0  0  0  0  0  0  0  0
  -26.8090  -29.6450  -16.7730 C   0  0  0  0  0  0  0  0  0  0  0  0
  -27.5290  -30.4430  -15.7200 C   0  0  0  0  0  0  0  0  0  0  0  0
  -29.0230  -30.2030  -15.8120 C   0  0  0  0  0  0  0  0  0  0  0  0
  -29.6000  -30.3490  -17.2140 C   0  0  0  0  0  0  0  0  0  0  0  0
 11 10  1  0
 10 15  1  0
 15 14  1  0
 14 13  1  0
 13 12  1  0
 12  7  2  0
  7  6  1  0
  6  5  2  0
  8  5  1  0
  9  8  2  0
 10  9  1  0
 12  9  1  0
  5  2  1  0
  3  2  2  0
  2  1  2  0
  4  2  1  0
M  END
>  <id>  (1) 
3

>  <inchikey>  (1) 
OUJFDUTZTPBMDN-UHFFFAOYSA-N

>  <alias>  (1) 
z0165a

>  <smiles>  (1) 
CN1CCCc2ccc(S(N)(=O)=O)cc21

>  <path>  (1) 
/opt/xchem-fragalysis-2/maxwin/BulkDock/TARGETS/Flavi_NS5_RdRp/aligned_files/z0165a/z0165a.pdb

>  <distance_score>  (1) 
None

>  <energy_score>  (1) 
None

>  <compound>  (1) 
OUJFDUTZTPBMDN-UHFFFAOYSA-N

>  <compound_id>  (1) 
3

>  <target>  (1) 
Flavi_NS5_RdRp

$$$$
z0496a
     RDKit          3D

 15 16  0  0  0  0  0  0  0  0999 V2000
  -25.9590  -28.7680  -25.1600 N   0  0  0  0  0  0  0  0  0  0  0  0
  -26.0420  -28.4970  -23.8550 C   0  0  0  0  0  0  0  0  0  0  0  0
  -25.1620  -27.1780  -23.1240 S   0  0  0  0  0  0  0  0  0  0  0  0
  -26.8550  -29.1130  -23.0370 N   0  0  0  0  0  0  0  0  0  0  0  0
  -26.8350  -28.5260  -21.7860 C   0  0  0  0  0  0  0  0  0  0  0  0
  -26.0000  -27.4500  -21.6360 C   0  0  0  0  0  0  0  0  0  0  0  0
  -25.8900  -26.4610  -20.5040 C   0  0  0  0  0  0  0  0  0  0  0  0
  -27.7430  -29.0820  -20.7730 C   0  0  0  0  0  0  0  0  0  0  0  0
  -29.0480  -29.3700  -21.1360 C   0  0  0  0  0  0  0  0  0  0  0  0
  -29.9530  -29.8900  -20.2210 C   0  0  0  0  0  0  0  0  0  0  0  0
  -31.3530  -30.2010  -20.6760 C   0  0  0  0  0  0  0  0  0  0  0  0
  -29.5450  -30.1300  -18.9000 C   0  0  0  0  0  0  0  0  0  0  0  0
  -30.5170  -30.6340  -17.8710 C   0  0  0  0  0  0  0  0  0  0  0  0
  -28.2350  -29.8430  -18.5440 C   0  0  0  0  0  0  0  0  0  0  0  0
  -27.3440  -29.3200  -19.4600 C   0  0  0  0  0  0  0  0  0  0  0  0
  7  6  1  0
  6  3  1  0
  3  2  1  0
  2  1  1  0
  4  2  2  0
  5  4  1  0
  6  5  2  0
  8  5  1  0
  8 15  2  0
 15 14  1  0
 14 12  2  0
 13 12  1  0
 12 10  1  0
 11 10  1  0
 10  9  2  0
  9  8  1  0
M  END
>  <id>  (2) 
136

>  <inchikey>  (2) 
TYFLPTHRTUYMKD-UHFFFAOYSA-N

>  <alias>  (2) 
z0496a

>  <smiles>  (2) 
Cc1ccc(-c2nc(N)sc2C)cc1C

>  <path>  (2) 
/opt/xchem-fragalysis-2/maxwin/BulkDock/TARGETS/Flavi_NS5_RdRp/aligned_files/z0496a/z0496a.pdb

>  <distance_score>  (2) 
None

>  <energy_score>  (2) 
None

>  <compound>  (2) 
TYFLPTHRTUYMKD-UHFFFAOYSA-N

>  <compound_id>  (2) 
104

>  <target>  (2) 
Flavi_NS5_RdRp

$$$$
