z0041a
     RDKit          3D

 14 15  0  0  0  0  0  0  0  0999 V2000
  -23.7940  -31.6120  -20.1450 O   0  0  0  0  0  0  0  0  0  0  0  0
  -24.9110  -31.1150  -20.2580 C   0  0  0  0  0  0  0  0  0  0  0  0
  -25.5170  -30.9790  -21.4320 N   0  0  0  0  0  0  0  0  0  0  0  0
  -25.4800  -32.0210  -22.4400 C   0  0  0  0  0  0  0  0  0  0  0  0
  -25.6570  -30.6310  -19.0670 C   0  0  0  0  0  0  0  0  0  0  0  0
  -27.0610  -30.2840  -18.9700 C   0  0  0  0  0  0  0  0  0  0  0  0
  -27.3130  -30.0000  -17.6170 C   0  0  0  0  0  0  0  0  0  0  0  0
  -26.1280  -30.1440  -16.9230 N   0  0  0  0  0  0  0  0  0  0  0  0
  -25.9570  -29.9770  -15.4860 C   0  0  0  0  0  0  0  0  0  0  0  0
  -25.1470  -30.5130  -17.8020 C   0  0  0  0  0  0  0  0  0  0  0  0
  -28.1200  -30.2470  -19.8740 C   0  0  0  0  0  0  0  0  0  0  0  0
  -29.4000  -29.9670  -19.4170 C   0  0  0  0  0  0  0  0  0  0  0  0
  -29.6330  -29.7030  -18.0730 C   0  0  0  0  0  0  0  0  0  0  0  0
  -28.5900  -29.7040  -17.1580 C   0  0  0  0  0  0  0  0  0  0  0  0
  4  3  1  0
  3  2  1  0
  2  1  2  0
  5  2  1  0
  5 10  2  0
 10  8  1  0
  9  8  1  0
  8  7  1  0
  7 14  2  0
 14 13  1  0
 13 12  2  0
 12 11  1  0
 11  6  2  0
  6  5  1  0
  7  6  1  0
M  END
>  <id>  (1) 
82

>  <inchikey>  (1) 
OHXYWSIWHXTWCT-UHFFFAOYSA-N

>  <alias>  (1) 
z0041a

>  <smiles>  (1) 
CNC(=O)c1cn(C)c2ccccc12

>  <path>  (1) 
/opt/xchem-fragalysis-2/maxwin/BulkDock/TARGETS/Flavi_NS5_RdRp/aligned_files/z0041a/z0041a.pdb

>  <distance_score>  (1) 
None

>  <energy_score>  (1) 
None

>  <compound>  (1) 
OHXYWSIWHXTWCT-UHFFFAOYSA-N

>  <compound_id>  (1) 
68

>  <target>  (1) 
Flavi_NS5_RdRp

$$$$
z0211a
     RDKit          3D

 14 14  0  0  0  0  0  0  0  0999 V2000
  -26.1990  -31.1140  -22.7050 O   0  0  0  0  0  0  0  0  0  0  0  0
  -25.4400  -31.2080  -21.7450 C   0  0  0  0  0  0  0  0  0  0  0  0
  -24.1640  -31.6450  -21.8600 N   0  0  0  0  0  0  0  0  0  0  0  0
  -23.5970  -32.0810  -23.1290 C   0  0  0  0  0  0  0  0  0  0  0  0
  -22.0380  -31.9840  -23.0990 C   0  0  1  0  0  0  0  0  0  0  0  0
  -21.5440  -31.8850  -21.7560 O   0  0  0  0  0  0  0  0  0  0  0  0
  -21.3930  -33.1630  -23.7940 C   0  0  0  0  0  0  0  0  0  0  0  0
  -25.7870  -30.8530  -20.4680 N   0  0  0  0  0  0  0  0  0  0  0  0
  -27.0380  -30.3840  -20.0010 C   0  0  0  0  0  0  0  0  0  0  0  0
  -27.1570  -30.1750  -18.6330 C   0  0  0  0  0  0  0  0  0  0  0  0
  -28.3980  -29.9090  -18.0800 C   0  0  0  0  0  0  0  0  0  0  0  0
  -29.5160  -29.8390  -18.8790 C   0  0  0  0  0  0  0  0  0  0  0  0
  -29.3970  -30.0030  -20.2420 C   0  0  0  0  0  0  0  0  0  0  0  0
  -28.1630  -30.2660  -20.8110 C   0  0  0  0  0  0  0  0  0  0  0  0
  5  7  1  1
  6  5  1  0
  5  4  1  0
  4  3  1  0
  3  2  1  0
  2  1  2  0
  8  2  1  0
  9  8  1  0
  9 14  2  0
 14 13  1  0
 13 12  2  0
 12 11  1  0
 11 10  2  0
 10  9  1  0
M  END
>  <id>  (2) 
102

>  <inchikey>  (2) 
XEAXHIGGZMUNSO-QMMMGPOBSA-N

>  <alias>  (2) 
z0211a

>  <smiles>  (2) 
C[C@H](O)CNC(=O)Nc1ccccc1

>  <path>  (2) 
/opt/xchem-fragalysis-2/maxwin/BulkDock/TARGETS/Flavi_NS5_RdRp/aligned_files/z0211a/z0211a.pdb

>  <distance_score>  (2) 
None

>  <energy_score>  (2) 
None

>  <compound>  (2) 
XEAXHIGGZMUNSO-UHFFFAOYSA-N

>  <compound_id>  (2) 
81

>  <target>  (2) 
Flavi_NS5_RdRp

$$$$
