z0211a
     RDKit          3D

 14 14  0  0  0  0  0  0  0  0999 V2000
  -26.1990  -31.1140  -22.7050 O   0  0  0  0  0  0  0  0  0  0  0  0
  -25.4400  -31.2080  -21.7450 C   0  0  0  0  0  0  0  0  0  0  0  0
  -24.1640  -31.6450  -21.8600 N   0  0  0  0  0  0  0  0  0  0  0  0
  -23.5970  -32.0810  -23.1290 C   0  0  0  0  0  0  0  0  0  0  0  0
  -22.0380  -31.9840  -23.0990 C   0  0  1  0  0  0  0  0  0  0  0  0
  -21.5440  -31.8850  -21.7560 O   0  0  0  0  0  0  0  0  0  0  0  0
  -21.3930  -33.1630  -23.7940 C   0  0  0  0  0  0  0  0  0  0  0  0
  -25.7870  -30.8530  -20.4680 N   0  0  0  0  0  0  0  0  0  0  0  0
  -27.0380  -30.3840  -20.0010 C   0  0  0  0  0  0  0  0  0  0  0  0
  -27.1570  -30.1750  -18.6330 C   0  0  0  0  0  0  0  0  0  0  0  0
  -28.3980  -29.9090  -18.0800 C   0  0  0  0  0  0  0  0  0  0  0  0
  -29.5160  -29.8390  -18.8790 C   0  0  0  0  0  0  0  0  0  0  0  0
  -29.3970  -30.0030  -20.2420 C   0  0  0  0  0  0  0  0  0  0  0  0
  -28.1630  -30.2660  -20.8110 C   0  0  0  0  0  0  0  0  0  0  0  0
  5  7  1  1
  6  5  1  0
  5  4  1  0
  4  3  1  0
  3  2  1  0
  2  1  2  0
  8  2  1  0
  9  8  1  0
  9 14  2  0
 14 13  1  0
 13 12  2  0
 12 11  1  0
 11 10  2  0
 10  9  1  0
M  END
>  <id>  (1) 
102

>  <inchikey>  (1) 
XEAXHIGGZMUNSO-QMMMGPOBSA-N

>  <alias>  (1) 
z0211a

>  <smiles>  (1) 
C[C@H](O)CNC(=O)Nc1ccccc1

>  <path>  (1) 
/opt/xchem-fragalysis-2/maxwin/BulkDock/TARGETS/Flavi_NS5_RdRp/aligned_files/z0211a/z0211a.pdb

>  <distance_score>  (1) 
None

>  <energy_score>  (1) 
None

>  <compound>  (1) 
XEAXHIGGZMUNSO-UHFFFAOYSA-N

>  <compound_id>  (1) 
81

>  <target>  (1) 
Flavi_NS5_RdRp

$$$$
z0936a
     RDKit          3D

 12 13  0  0  0  0  0  0  0  0999 V2000
  -31.0190  -29.9040  -21.3950 C   0  0  0  0  0  0  0  0  0  0  0  0
  -29.9580  -29.9490  -20.3520 C   0  0  0  0  0  0  0  0  0  0  0  0
  -28.6590  -29.9330  -20.6850 N   0  0  0  0  0  0  0  0  0  0  0  0
  -27.8580  -29.9570  -19.6090 N   0  0  0  0  0  0  0  0  0  0  0  0
  -28.6830  -29.9820  -18.5540 C   0  0  0  0  0  0  0  0  0  0  0  0
  -30.0220  -29.9890  -18.9800 C   0  0  0  0  0  0  0  0  0  0  0  0
  -28.1440  -29.9490  -17.1880 C   0  0  0  0  0  0  0  0  0  0  0  0
  -28.9900  -29.8360  -16.0960 C   0  0  0  0  0  0  0  0  0  0  0  0
  -28.4730  -29.7820  -14.8130 C   0  0  0  0  0  0  0  0  0  0  0  0
  -27.1140  -29.8360  -14.6100 C   0  0  0  0  0  0  0  0  0  0  0  0
  -26.2690  -29.9480  -15.6850 C   0  0  0  0  0  0  0  0  0  0  0  0
  -26.7760  -30.0080  -16.9700 C   0  0  0  0  0  0  0  0  0  0  0  0
  2  1  1  0
  2  6  2  0
  6  5  1  0
  5  4  2  0
  4  3  1  0
  3  2  1  0
  7  5  1  0
  7 12  2  0
 12 11  1  0
 11 10  2  0
 10  9  1  0
  9  8  2  0
  8  7  1  0
M  END
>  <id>  (2) 
196

>  <inchikey>  (2) 
QHRSESMSOJZMCO-UHFFFAOYSA-N

>  <alias>  (2) 
z0936a

>  <smiles>  (2) 
Cc1cc(-c2ccccc2)n[nH]1

>  <path>  (2) 
/opt/xchem-fragalysis-2/maxwin/BulkDock/TARGETS/Flavi_NS5_RdRp/aligned_files/z0936a/z0936a.pdb

>  <distance_score>  (2) 
None

>  <energy_score>  (2) 
None

>  <compound>  (2) 
QHRSESMSOJZMCO-UHFFFAOYSA-N

>  <compound_id>  (2) 
136

>  <target>  (2) 
Flavi_NS5_RdRp

$$$$
