z0211a
     RDKit          3D

 14 14  0  0  0  0  0  0  0  0999 V2000
  -26.1990  -31.1140  -22.7050 O   0  0  0  0  0  0  0  0  0  0  0  0
  -25.4400  -31.2080  -21.7450 C   0  0  0  0  0  0  0  0  0  0  0  0
  -24.1640  -31.6450  -21.8600 N   0  0  0  0  0  0  0  0  0  0  0  0
  -23.5970  -32.0810  -23.1290 C   0  0  0  0  0  0  0  0  0  0  0  0
  -22.0380  -31.9840  -23.0990 C   0  0  1  0  0  0  0  0  0  0  0  0
  -21.5440  -31.8850  -21.7560 O   0  0  0  0  0  0  0  0  0  0  0  0
  -21.3930  -33.1630  -23.7940 C   0  0  0  0  0  0  0  0  0  0  0  0
  -25.7870  -30.8530  -20.4680 N   0  0  0  0  0  0  0  0  0  0  0  0
  -27.0380  -30.3840  -20.0010 C   0  0  0  0  0  0  0  0  0  0  0  0
  -27.1570  -30.1750  -18.6330 C   0  0  0  0  0  0  0  0  0  0  0  0
  -28.3980  -29.9090  -18.0800 C   0  0  0  0  0  0  0  0  0  0  0  0
  -29.5160  -29.8390  -18.8790 C   0  0  0  0  0  0  0  0  0  0  0  0
  -29.3970  -30.0030  -20.2420 C   0  0  0  0  0  0  0  0  0  0  0  0
  -28.1630  -30.2660  -20.8110 C   0  0  0  0  0  0  0  0  0  0  0  0
  5  7  1  1
  6  5  1  0
  5  4  1  0
  4  3  1  0
  3  2  1  0
  2  1  2  0
  8  2  1  0
  9  8  1  0
  9 14  2  0
 14 13  1  0
 13 12  2  0
 12 11  1  0
 11 10  2  0
 10  9  1  0
M  END
>  <id>  (1) 
102

>  <inchikey>  (1) 
XEAXHIGGZMUNSO-QMMMGPOBSA-N

>  <alias>  (1) 
z0211a

>  <smiles>  (1) 
C[C@H](O)CNC(=O)Nc1ccccc1

>  <path>  (1) 
/opt/xchem-fragalysis-2/maxwin/BulkDock/TARGETS/Flavi_NS5_RdRp/aligned_files/z0211a/z0211a.pdb

>  <distance_score>  (1) 
None

>  <energy_score>  (1) 
None

>  <compound>  (1) 
XEAXHIGGZMUNSO-UHFFFAOYSA-N

>  <compound_id>  (1) 
81

>  <target>  (1) 
Flavi_NS5_RdRp

$$$$
z1040a
     RDKit          3D

 12 13  0  0  0  0  0  0  0  0999 V2000
  -24.4130  -30.4810  -16.2440 C   0  0  0  0  0  0  0  0  0  0  0  0
  -25.0350  -30.4490  -17.5480 N   0  0  0  0  0  0  0  0  0  0  0  0
  -26.3820  -30.3770  -17.7220 C   0  0  0  0  0  0  0  0  0  0  0  0
  -26.7710  -30.2300  -18.9810 N   0  0  0  0  0  0  0  0  0  0  0  0
  -28.1160  -30.1920  -19.2360 C   0  0  0  0  0  0  0  0  0  0  0  0
  -29.0760  -30.3170  -18.2040 C   0  0  0  0  0  0  0  0  0  0  0  0
  -28.6080  -30.4480  -16.8770 C   0  0  0  0  0  0  0  0  0  0  0  0
  -27.2710  -30.4820  -16.6230 C   0  0  0  0  0  0  0  0  0  0  0  0
  -28.5520  -30.0240  -20.5700 C   0  0  0  0  0  0  0  0  0  0  0  0
  -29.8820  -30.0300  -20.8630 C   0  0  0  0  0  0  0  0  0  0  0  0
  -30.8250  -30.1900  -19.8590 C   0  0  0  0  0  0  0  0  0  0  0  0
  -30.4410  -30.3200  -18.5540 C   0  0  0  0  0  0  0  0  0  0  0  0
  2  1  1  0
  3  2  1  0
  3  8  2  0
  8  7  1  0
  7  6  2  0
  6 12  1  0
 12 11  2  0
 11 10  1  0
 10  9  2  0
  9  5  1  0
  6  5  1  0
  5  4  2  0
  4  3  1  0
M  END
>  <id>  (2) 
208

>  <inchikey>  (2) 
POVSMFKXVSNGSU-UHFFFAOYSA-N

>  <alias>  (2) 
z1040a

>  <smiles>  (2) 
CNc1ccc2ccccc2n1

>  <path>  (2) 
/opt/xchem-fragalysis-2/maxwin/BulkDock/TARGETS/Flavi_NS5_RdRp/aligned_files/z1040a/z1040a.pdb

>  <distance_score>  (2) 
None

>  <energy_score>  (2) 
None

>  <compound>  (2) 
POVSMFKXVSNGSU-UHFFFAOYSA-N

>  <compound_id>  (2) 
146

>  <target>  (2) 
Flavi_NS5_RdRp

$$$$
