z0411a
     RDKit          3D

 18 19  0  0  0  0  0  0  0  0999 V2000
  -26.1440  -31.6230  -22.2200 O   0  0  0  0  0  0  0  0  0  0  0  0
  -25.2710  -31.3850  -21.3840 C   0  0  0  0  0  0  0  0  0  0  0  0
  -25.5410  -30.8030  -20.1630 N   0  0  0  0  0  0  0  0  0  0  0  0
  -26.8110  -30.4430  -19.6260 C   0  0  0  0  0  0  0  0  0  0  0  0
  -26.9660  -30.4870  -18.2440 C   0  0  0  0  0  0  0  0  0  0  0  0
  -28.2280  -30.3030  -17.7120 C   0  0  0  0  0  0  0  0  0  0  0  0
  -29.3150  -30.0900  -18.4540 N   0  0  0  0  0  0  0  0  0  0  0  0
  -29.1430  -30.0210  -19.7810 C   0  0  0  0  0  0  0  0  0  0  0  0
  -27.9240  -30.1710  -20.4110 C   0  0  0  0  0  0  0  0  0  0  0  0
  -23.9230  -31.6330  -21.5750 N   0  0  0  0  0  0  0  0  0  0  0  0
  -23.2810  -32.2240  -22.7030 C   0  0  0  0  0  0  0  0  0  0  0  0
  -21.8900  -32.3380  -22.7020 C   0  0  0  0  0  0  0  0  0  0  0  0
  -21.2380  -32.9890  -23.7400 C   0  0  0  0  0  0  0  0  0  0  0  0
  -24.0040  -32.7560  -23.7770 C   0  0  0  0  0  0  0  0  0  0  0  0
  -23.3530  -33.4130  -24.8110 C   0  0  0  0  0  0  0  0  0  0  0  0
  -21.9710  -33.5320  -24.7940 C   0  0  0  0  0  0  0  0  0  0  0  0
  -21.3580  -34.1360  -25.8640 O   0  0  0  0  0  0  0  0  0  0  0  0
  -21.6580  -35.5090  -26.1570 C   0  0  0  0  0  0  0  0  0  0  0  0
 18 17  1  0
 17 16  1  0
 16 13  1  0
 13 12  2  0
 12 11  1  0
 11 10  1  0
 10  2  1  0
  2  1  2  0
  3  2  1  0
  4  3  1  0
  4  9  2  0
  9  8  1  0
  8  7  2  0
  7  6  1  0
  6  5  2  0
  5  4  1  0
 14 11  2  0
 15 14  1  0
 16 15  2  0
M  END
>  <id>  (1) 
123

>  <inchikey>  (1) 
IFKGCTGEAFOLOL-UHFFFAOYSA-N

>  <alias>  (1) 
z0411a

>  <smiles>  (1) 
COc1ccc(NC(=O)Nc2ccncc2)cc1

>  <path>  (1) 
/opt/xchem-fragalysis-2/maxwin/BulkDock/TARGETS/Flavi_NS5_RdRp/aligned_files/z0411a/z0411a.pdb

>  <distance_score>  (1) 
None

>  <energy_score>  (1) 
None

>  <compound>  (1) 
IFKGCTGEAFOLOL-UHFFFAOYSA-N

>  <compound_id>  (1) 
97

>  <target>  (1) 
Flavi_NS5_RdRp

$$$$
3vws-a
     RDKit          3D

 24 26  0  0  0  0  0  0  0  0999 V2000
  -26.7260  -28.5030  -20.2290 Cl  0  0  0  0  0  0  0  0  0  0  0  0
  -26.3420  -30.1380  -19.6870 C   0  0  0  0  0  0  0  0  0  0  0  0
  -27.1730  -30.5900  -18.6680 C   0  0  0  0  0  0  0  0  0  0  0  0
  -26.9720  -31.8610  -18.1400 C   0  0  0  0  0  0  0  0  0  0  0  0
  -25.2990  -30.9420  -20.2270 C   0  0  0  0  0  0  0  0  0  0  0  0
  -25.1090  -32.2420  -19.6830 C   0  0  0  0  0  0  0  0  0  0  0  0
  -25.9680  -32.7080  -18.6110 C   0  0  0  0  0  0  0  0  0  0  0  0
  -25.8660  -34.1300  -17.8450 S   0  0  0  0  0  0  0  0  0  0  0  0
  -26.9300  -35.1090  -17.9600 O   0  0  0  0  0  0  0  0  0  0  0  0
  -25.1250  -34.9060  -18.8310 O   0  0  0  0  0  0  0  0  0  0  0  0
  -24.6750  -34.2200  -16.7840 N   0  0  0  0  0  0  0  0  0  0  0  0
  -23.4960  -33.5330  -16.6760 C   0  0  0  0  0  0  0  0  0  0  0  0
  -22.4850  -33.5910  -17.6800 C   0  0  0  0  0  0  0  0  0  0  0  0
  -21.2550  -32.9000  -17.4970 C   0  0  0  0  0  0  0  0  0  0  0  0
  -23.2770  -32.7760  -15.4720 C   0  0  0  0  0  0  0  0  0  0  0  0
  -22.0400  -32.0890  -15.2880 C   0  0  0  0  0  0  0  0  0  0  0  0
  -21.4420  -31.2650  -14.2800 C   0  0  0  0  0  0  0  0  0  0  0  0
  -22.1160  -30.8650  -12.9730 C   0  0  0  0  0  0  0  0  0  0  0  0
  -23.2530  -31.2820  -12.6450 O   0  0  0  0  0  0  0  0  0  0  0  0
  -21.5200  -30.0570  -12.2170 O   0  0  0  0  0  0  0  0  0  0  0  0
  -21.0530  -32.1600  -16.2940 C   0  0  0  0  0  0  0  0  0  0  0  0
  -19.9760  -31.4690  -15.9630 O   0  0  0  0  0  0  0  0  0  0  0  0
  -20.1540  -30.9040  -14.7170 C   0  0  0  0  0  0  0  0  0  0  0  0
  -19.0000  -30.0710  -14.1720 C   0  0  0  0  0  0  0  0  0  0  0  0
  9  8  2  0
 10  8  2  0
  8  7  1  0
  8 11  1  0
  7  4  2  0
  7  6  1  0
  4  3  1  0
  6  5  2  0
 11 12  1  0
  3  2  2  0
  5  2  1  0
  2  1  1  0
 12 13  2  0
 12 15  1  0
 13 14  1  0
 15 16  2  0
 14 21  2  0
 16 21  1  0
 16 17  1  0
 21 22  1  0
 19 18  2  0
 17 18  1  0
 17 23  2  0
 22 23  1  0
 18 20  1  0
 23 24  1  0
M  END
>  <id>  (2) 
218

>  <inchikey>  (2) 
UZVVWRBCUSWUON-UHFFFAOYSA-N

>  <alias>  (2) 
3vws-a

>  <smiles>  (2) 
Cc1oc2ccc(NS(=O)(=O)c3ccc(Cl)cc3)cc2c1C(=O)O

>  <path>  (2) 
/opt/xchem-fragalysis-2/maxwin/BulkDock/TARGETS/Flavi_NS5_RdRp/aligned_files/3vws-a/3vws-a.pdb

>  <distance_score>  (2) 
None

>  <energy_score>  (2) 
None

>  <compound>  (2) 
UZVVWRBCUSWUON-UHFFFAOYSA-N

>  <compound_id>  (2) 
154

>  <target>  (2) 
Flavi_NS5_RdRp

$$$$
