z0111a
     RDKit          3D

 12 13  0  0  0  0  0  0  0  0999 V2000
  -25.3030  -31.2440  -20.6040 C   0  0  0  0  0  0  0  0  0  0  0  0
  -26.2370  -30.1530  -20.7810 N   0  0  0  0  0  0  0  0  0  0  0  0
  -27.4370  -30.1020  -20.1780 C   0  0  0  0  0  0  0  0  0  0  0  0
  -27.5310  -30.0830  -18.7350 C   0  0  0  0  0  0  0  0  0  0  0  0
  -28.8350  -30.0110  -18.1720 C   0  0  0  0  0  0  0  0  0  0  0  0
  -29.9450  -29.9760  -19.0390 C   0  0  0  0  0  0  0  0  0  0  0  0
  -29.7370  -29.9860  -20.3820 C   0  0  0  0  0  0  0  0  0  0  0  0
  -28.5250  -30.0410  -20.9520 N   0  0  0  0  0  0  0  0  0  0  0  0
  -26.4230  -30.1010  -17.8430 C   0  0  0  0  0  0  0  0  0  0  0  0
  -26.6070  -30.0480  -16.4900 C   0  0  0  0  0  0  0  0  0  0  0  0
  -27.8780  -29.9700  -15.9560 C   0  0  0  0  0  0  0  0  0  0  0  0
  -28.9740  -29.9500  -16.7680 C   0  0  0  0  0  0  0  0  0  0  0  0
  2  1  1  0
  3  2  1  0
  3  8  2  0
  8  7  1  0
  7  6  2  0
  6  5  1  0
  5 12  2  0
 12 11  1  0
 11 10  2  0
 10  9  1  0
  9  4  2  0
  4  3  1  0
  5  4  1  0
M  END
>  <id>  (1) 
88

>  <inchikey>  (1) 
BILUZSWZYDFPMN-UHFFFAOYSA-N

>  <alias>  (1) 
z0111a

>  <smiles>  (1) 
CNc1nccc2ccccc12

>  <path>  (1) 
/opt/xchem-fragalysis-2/maxwin/BulkDock/TARGETS/Flavi_NS5_RdRp/aligned_files/z0111a/z0111a.pdb

>  <distance_score>  (1) 
None

>  <energy_score>  (1) 
None

>  <compound>  (1) 
BILUZSWZYDFPMN-UHFFFAOYSA-N

>  <compound_id>  (1) 
72

>  <target>  (1) 
Flavi_NS5_RdRp

$$$$
3vws-b
     RDKit          3D

 24 26  0  0  0  0  0  0  0  0999 V2000
  -23.4650  -28.6480  -15.5860 Cl  0  0  0  0  0  0  0  0  0  0  0  0
  -22.3660  -28.8730  -16.9970 C   0  0  0  0  0  0  0  0  0  0  0  0
  -22.9060  -29.5530  -18.1020 C   0  0  0  0  0  0  0  0  0  0  0  0
  -22.0950  -29.7410  -19.2230 C   0  0  0  0  0  0  0  0  0  0  0  0
  -21.0090  -28.3900  -17.0180 C   0  0  0  0  0  0  0  0  0  0  0  0
  -20.2010  -28.6030  -18.1730 C   0  0  0  0  0  0  0  0  0  0  0  0
  -20.7490  -29.2990  -19.3230 C   0  0  0  0  0  0  0  0  0  0  0  0
  -19.9610  -29.6120  -20.7660 S   0  0  0  0  0  0  0  0  0  0  0  0
  -20.2550  -28.6020  -21.8330 O   0  0  0  0  0  0  0  0  0  0  0  0
  -18.6660  -29.0470  -20.4310 O   0  0  0  0  0  0  0  0  0  0  0  0
  -19.1620  -31.0130  -20.9470 N   0  0  0  0  0  0  0  0  0  0  0  0
  -19.7970  -32.2470  -20.9910 C   0  0  0  0  0  0  0  0  0  0  0  0
  -19.1610  -33.3930  -20.4120 C   0  0  0  0  0  0  0  0  0  0  0  0
  -19.8070  -34.6650  -20.4470 C   0  0  0  0  0  0  0  0  0  0  0  0
  -21.0890  -32.3890  -21.6070 C   0  0  0  0  0  0  0  0  0  0  0  0
  -21.7270  -33.6590  -21.6310 C   0  0  0  0  0  0  0  0  0  0  0  0
  -22.9550  -34.1670  -22.1330 C   0  0  0  0  0  0  0  0  0  0  0  0
  -23.9950  -33.2800  -22.8450 C   0  0  0  0  0  0  0  0  0  0  0  0
  -25.0570  -33.8360  -23.2630 O   0  0  0  0  0  0  0  0  0  0  0  0
  -23.8250  -32.0220  -23.0110 O   0  0  0  0  0  0  0  0  0  0  0  0
  -21.0960  -34.7900  -21.0600 C   0  0  0  0  0  0  0  0  0  0  0  0
  -21.8390  -35.9000  -21.1800 O   0  0  0  0  0  0  0  0  0  0  0  0
  -23.0070  -35.5580  -21.8460 C   0  0  0  0  0  0  0  0  0  0  0  0
  -23.9950  -36.6710  -22.0870 C   0  0  0  0  0  0  0  0  0  0  0  0
  9  8  2  0
 10  8  2  0
  8  7  1  0
  8 11  1  0
  7  4  2  0
  7  6  1  0
  4  3  1  0
  6  5  2  0
 11 12  1  0
  3  2  2  0
  5  2  1  0
  2  1  1  0
 12 13  2  0
 12 15  1  0
 13 14  1  0
 15 16  2  0
 14 21  2  0
 16 21  1  0
 16 17  1  0
 21 22  1  0
 19 18  2  0
 17 18  1  0
 17 23  2  0
 22 23  1  0
 18 20  1  0
 23 24  1  0
M  END
>  <id>  (2) 
217

>  <inchikey>  (2) 
UZVVWRBCUSWUON-UHFFFAOYSA-N

>  <alias>  (2) 
3vws-b

>  <smiles>  (2) 
Cc1oc2ccc(NS(=O)(=O)c3ccc(Cl)cc3)cc2c1C(=O)O

>  <path>  (2) 
/opt/xchem-fragalysis-2/maxwin/BulkDock/TARGETS/Flavi_NS5_RdRp/aligned_files/3vws-b/3vws-b.pdb

>  <distance_score>  (2) 
None

>  <energy_score>  (2) 
None

>  <compound>  (2) 
UZVVWRBCUSWUON-UHFFFAOYSA-N

>  <compound_id>  (2) 
154

>  <target>  (2) 
Flavi_NS5_RdRp

$$$$
