d0472b
     RDKit          3D

 12 13  0  0  0  0  0  0  0  0999 V2000
  -25.7860  -30.1580  -22.6030 N   0  0  0  0  0  0  0  0  0  0  0  0
  -25.4350  -29.2880  -21.6020 C   0  0  0  0  0  0  0  0  0  0  0  0
  -25.4900  -29.6630  -20.2360 C   0  0  0  0  0  0  0  0  0  0  0  0
  -25.2560  -28.8050  -19.2310 N   0  0  0  0  0  0  0  0  0  0  0  0
  -24.9150  -27.5420  -19.5530 C   0  0  0  0  0  0  0  0  0  0  0  0
  -24.7950  -27.0890  -20.8520 C   0  0  0  0  0  0  0  0  0  0  0  0
  -25.0600  -27.9730  -21.8820 C   0  0  0  0  0  0  0  0  0  0  0  0
  -25.6910  -31.0170  -19.8210 N   0  0  0  0  0  0  0  0  0  0  0  0
  -26.5140  -31.9480  -20.4250 C   0  0  0  0  0  0  0  0  0  0  0  0
  -26.3550  -33.1370  -19.7780 C   0  0  0  0  0  0  0  0  0  0  0  0
  -25.4190  -32.9400  -18.7410 C   0  0  0  0  0  0  0  0  0  0  0  0
  -25.0260  -31.6340  -18.7800 C   0  0  0  0  0  0  0  0  0  0  0  0
  2  1  1  0
  2  7  2  0
  7  6  1  0
  6  5  2  0
  5  4  1  0
  4  3  2  0
  3  2  1  0
  8  3  1  0
  8 12  1  0
 12 11  2  0
 11 10  1  0
 10  9  2  0
  9  8  1  0
M  END
>  <id>  (1) 
41

>  <inchikey>  (1) 
QCTDPVKLZRURRV-UHFFFAOYSA-N

>  <alias>  (1) 
d0472b

>  <smiles>  (1) 
Nc1cccnc1-n1cccc1

>  <path>  (1) 
/opt/xchem-fragalysis-2/maxwin/BulkDock/TARGETS/Flavi_NS5_RdRp/aligned_files/d0472b/d0472b.pdb

>  <distance_score>  (1) 
None

>  <energy_score>  (1) 
None

>  <compound>  (1) 
QCTDPVKLZRURRV-UHFFFAOYSA-N

>  <compound_id>  (1) 
35

>  <target>  (1) 
Flavi_NS5_RdRp

$$$$
z0200a
     RDKit          3D

 14 15  0  0  0  0  0  0  0  0999 V2000
  -25.5180  -30.8140  -19.9410 O   0  0  0  0  0  0  0  0  0  0  0  0
  -26.4530  -30.0200  -19.9980 C   0  0  0  0  0  0  0  0  0  0  0  0
  -26.2900  -28.7010  -19.9630 N   0  0  0  0  0  0  0  0  0  0  0  0
  -25.0670  -28.0590  -20.4080 C   0  0  0  0  0  0  0  0  0  0  0  0
  -27.8920  -30.4910  -20.0450 C   0  0  1  0  0  0  0  0  0  0  0  0
  -28.4700  -30.4180  -18.7050 C   0  0  0  0  0  0  0  0  0  0  0  0
  -27.7220  -30.2860  -17.5570 N   0  0  0  0  0  0  0  0  0  0  0  0
  -28.4820  -30.2510  -16.5010 C   0  0  0  0  0  0  0  0  0  0  0  0
  -27.9580  -30.1810  -15.1070 C   0  0  0  0  0  0  0  0  0  0  0  0
  -30.1750  -30.3600  -16.8280 S   0  0  0  0  0  0  0  0  0  0  0  0
  -29.8140  -30.4790  -18.5180 C   0  0  0  0  0  0  0  0  0  0  0  0
  -30.8560  -30.3040  -19.5830 C   0  0  0  0  0  0  0  0  0  0  0  0
  -30.2130  -30.2150  -20.9710 C   0  0  0  0  0  0  0  0  0  0  0  0
  -28.8090  -29.6280  -20.9240 C   0  0  0  0  0  0  0  0  0  0  0  0
  4  3  1  0
  3  2  1  0
  2  1  2  0
  5  2  1  1
  5 14  1  0
 14 13  1  0
 13 12  1  0
 12 11  1  0
 11 10  1  0
 10  8  1  0
  9  8  1  0
  8  7  2  0
  7  6  1  0
  6  5  1  0
 11  6  2  0
M  END
>  <id>  (2) 
100

>  <inchikey>  (2) 
VHNBWPBVIQVVTE-SSDOTTSWSA-N

>  <alias>  (2) 
z0200a

>  <smiles>  (2) 
CNC(=O)[C@@H]1CCCc2sc(C)nc21

>  <path>  (2) 
/opt/xchem-fragalysis-2/maxwin/BulkDock/TARGETS/Flavi_NS5_RdRp/aligned_files/z0200a/z0200a.pdb

>  <distance_score>  (2) 
None

>  <energy_score>  (2) 
None

>  <compound>  (2) 
VHNBWPBVIQVVTE-UHFFFAOYSA-N

>  <compound_id>  (2) 
79

>  <target>  (2) 
Flavi_NS5_RdRp

$$$$
