d0160a
     RDKit          3D

 12 13  0  0  0  0  0  0  0  0999 V2000
  -14.8680  -42.8470  -22.4170 C   0  0  0  0  0  0  0  0  0  0  0  0
  -14.3590  -41.4720  -22.7610 C   0  0  0  0  0  0  0  0  0  0  0  0
  -14.6310  -40.6870  -23.8930 C   0  0  0  0  0  0  0  0  0  0  0  0
  -13.9280  -39.5420  -23.7350 N   0  0  0  0  0  0  0  0  0  0  0  0
  -13.2130  -39.5230  -22.5740 N   0  0  0  0  0  0  0  0  0  0  0  0
  -13.4780  -40.6900  -21.9930 C   0  0  0  0  0  0  0  0  0  0  0  0
  -15.4880  -40.9120  -25.0760 C   0  0  0  0  0  0  0  0  0  0  0  0
  -16.4450  -41.9230  -25.0890 C   0  0  0  0  0  0  0  0  0  0  0  0
  -17.2400  -42.0720  -26.2090 C   0  0  0  0  0  0  0  0  0  0  0  0
  -17.1550  -41.2910  -27.2920 N   0  0  0  0  0  0  0  0  0  0  0  0
  -16.2280  -40.3270  -27.2660 C   0  0  0  0  0  0  0  0  0  0  0  0
  -15.3790  -40.1030  -26.1990 C   0  0  0  0  0  0  0  0  0  0  0  0
  2  1  1  0
  2  6  1  0
  6  5  2  0
  5  4  1  0
  4  3  1  0
  3  2  2  0
  7  3  1  0
  7 12  2  0
 12 11  1  0
 11 10  2  0
 10  9  1  0
  9  8  2  0
  8  7  1  0
M  END
>  <id>  (1) 
12

>  <inchikey>  (1) 
DIJNPLGAABOOQW-UHFFFAOYSA-N

>  <alias>  (1) 
d0160a

>  <smiles>  (1) 
Cc1cn[nH]c1-c1ccncc1

>  <path>  (1) 
/opt/xchem-fragalysis-2/maxwin/BulkDock/TARGETS/Flavi_NS5_RdRp/aligned_files/d0160a/d0160a.pdb

>  <distance_score>  (1) 
None

>  <energy_score>  (1) 
None

>  <compound>  (1) 
DIJNPLGAABOOQW-UHFFFAOYSA-N

>  <compound_id>  (1) 
10

>  <target>  (1) 
Flavi_NS5_RdRp

$$$$
d0254a
     RDKit          3D

 15 16  0  0  0  0  0  0  0  0999 V2000
  -18.5140  -44.9440  -23.0850 O   0  0  0  0  0  0  0  0  0  0  0  0
  -17.5800  -44.9250  -22.2900 C   0  0  0  0  0  0  0  0  0  0  0  0
  -17.6230  -45.8150  -21.0530 C   0  0  1  0  0  0  0  0  0  0  0  0
  -16.4130  -45.7010  -20.2780 O   0  0  0  0  0  0  0  0  0  0  0  0
  -16.7580  -45.4230  -18.9190 C   0  0  0  0  0  0  0  0  0  0  0  0
  -18.2140  -45.7750  -18.7620 C   0  0  0  0  0  0  0  0  0  0  0  0
  -18.7790  -45.4810  -20.1350 C   0  0  0  0  0  0  0  0  0  0  0  0
  -16.4730  -44.1500  -22.4210 N   0  0  0  0  0  0  0  0  0  0  0  0
  -16.1690  -43.2350  -23.4440 C   0  0  0  0  0  0  0  0  0  0  0  0
  -16.8900  -43.1390  -24.6480 C   0  0  0  0  0  0  0  0  0  0  0  0
  -16.5400  -42.1420  -25.5370 C   0  0  0  0  0  0  0  0  0  0  0  0
  -15.1490  -42.4110  -23.1580 N   0  0  0  0  0  0  0  0  0  0  0  0
  -14.8480  -41.4540  -24.0500 C   0  0  0  0  0  0  0  0  0  0  0  0
  -15.5130  -41.2620  -25.2530 C   0  0  0  0  0  0  0  0  0  0  0  0
  -15.1640  -40.1290  -26.1880 C   0  0  0  0  0  0  0  0  0  0  0  0
 15 14  1  0
 14 11  1  0
 11 10  2  0
 10  9  1  0
  9  8  1  0
  8  2  1  0
  2  1  2  0
  3  2  1  6
  3  7  1  0
  7  6  1  0
  6  5  1  0
  5  4  1  0
  4  3  1  0
 12  9  2  0
 13 12  1  0
 14 13  2  0
M  END
>  <id>  (2) 
26

>  <inchikey>  (2) 
BFRXGCPOQMOBHK-VIFPVBQESA-N

>  <alias>  (2) 
d0254a

>  <smiles>  (2) 
Cc1ccc(NC(=O)[C@@H]2CCCO2)nc1

>  <path>  (2) 
/opt/xchem-fragalysis-2/maxwin/BulkDock/TARGETS/Flavi_NS5_RdRp/aligned_files/d0254a/d0254a.pdb

>  <distance_score>  (2) 
None

>  <energy_score>  (2) 
None

>  <compound>  (2) 
BFRXGCPOQMOBHK-UHFFFAOYSA-N

>  <compound_id>  (2) 
22

>  <target>  (2) 
Flavi_NS5_RdRp

$$$$
d0612a
     RDKit          3D

 16 17  0  0  0  0  0  0  0  0999 V2000
  -13.7420  -44.9730  -19.1420 F   0  0  0  0  0  0  0  0  0  0  0  0
  -14.1440  -44.1640  -20.1680 C   0  0  0  0  0  0  0  0  0  0  0  0
  -13.4440  -43.0190  -20.4000 C   0  0  0  0  0  0  0  0  0  0  0  0
  -13.8550  -42.1920  -21.4290 C   0  0  0  0  0  0  0  0  0  0  0  0
  -15.2410  -44.5320  -20.9060 C   0  0  0  0  0  0  0  0  0  0  0  0
  -15.6570  -43.6970  -21.9320 C   0  0  0  0  0  0  0  0  0  0  0  0
  -14.9670  -42.5160  -22.2110 C   0  0  0  0  0  0  0  0  0  0  0  0
  -15.3700  -41.6670  -23.2520 N   0  0  0  0  0  0  0  0  0  0  0  0
  -16.2840  -42.0770  -24.3180 C   0  0  0  0  0  0  0  0  0  0  0  0
  -15.9790  -41.3250  -25.5950 C   0  0  0  0  0  0  0  0  0  0  0  0
  -15.4270  -40.2230  -23.0130 C   0  0  0  0  0  0  0  0  0  0  0  0
  -15.1170  -39.4550  -24.2680 C   0  0  0  0  0  0  0  0  0  0  0  0
  -15.9970  -39.8740  -25.3650 N   0  0  0  0  0  0  0  0  0  0  0  0
  -15.8750  -39.0560  -26.5620 C   0  0  0  0  0  0  0  0  0  0  0  0
  -15.3290  -37.9410  -26.4740 O   0  0  0  0  0  0  0  0  0  0  0  0
  -16.3260  -39.5440  -27.7270 N   0  0  0  0  0  0  0  0  0  0  0  0
 16 14  1  0
 15 14  2  0
 14 13  1  0
 13 10  1  0
 10  9  1  0
  9  8  1  0
 11  8  1  0
 12 11  1  0
 13 12  1  0
  8  7  1  0
  7  4  2  0
  4  3  1  0
  3  2  2  0
  2  1  1  0
  5  2  1  0
  6  5  2  0
  7  6  1  0
M  END
>  <id>  (3) 
49

>  <inchikey>  (3) 
XARVCWHXIZRCGB-UHFFFAOYSA-N

>  <alias>  (3) 
d0612a

>  <smiles>  (3) 
NC(=O)N1CCN(c2ccc(F)cc2)CC1

>  <path>  (3) 
/opt/xchem-fragalysis-2/maxwin/BulkDock/TARGETS/Flavi_NS5_RdRp/aligned_files/d0612a/d0612a.pdb

>  <distance_score>  (3) 
None

>  <energy_score>  (3) 
None

>  <compound>  (3) 
XARVCWHXIZRCGB-UHFFFAOYSA-N

>  <compound_id>  (3) 
42

>  <target>  (3) 
Flavi_NS5_RdRp

$$$$
d0615b
     RDKit          3D

 15 16  0  0  0  0  0  0  0  0999 V2000
  -18.6710  -43.8090  -24.6670 F   0  0  0  0  0  0  0  0  0  0  0  0
  -17.5250  -43.3270  -24.1160 C   0  0  0  0  0  0  0  0  0  0  0  0
  -17.1250  -43.7850  -22.8860 C   0  0  0  0  0  0  0  0  0  0  0  0
  -16.0090  -43.3300  -22.3050 N   0  0  0  0  0  0  0  0  0  0  0  0
  -15.2990  -42.3990  -22.9570 C   0  0  0  0  0  0  0  0  0  0  0  0
  -16.8090  -42.3840  -24.8030 C   0  0  0  0  0  0  0  0  0  0  0  0
  -15.6590  -41.8830  -24.2030 C   0  0  0  0  0  0  0  0  0  0  0  0
  -14.9140  -40.8750  -24.7970 N   0  0  0  0  0  0  0  0  0  0  0  0
  -15.2780  -40.2110  -26.0360 C   0  0  0  0  0  0  0  0  0  0  0  0
  -16.3830  -39.2140  -25.8960 C   0  0  0  0  0  0  0  0  0  0  0  0
  -17.3690  -38.9300  -26.7710 C   0  0  0  0  0  0  0  0  0  0  0  0
  -18.2750  -37.9550  -26.4070 N   0  0  0  0  0  0  0  0  0  0  0  0
  -16.5660  -38.2060  -24.4990 S   0  0  0  0  0  0  0  0  0  0  0  0
  -17.9680  -37.4870  -25.2330 C   0  0  0  0  0  0  0  0  0  0  0  0
  -18.7400  -36.4070  -24.5480 C   0  0  0  0  0  0  0  0  0  0  0  0
 15 14  1  0
 14 12  2  0
 12 11  1  0
 11 10  2  0
 10  9  1  0
  9  8  1  0
  8  7  1  0
  7  5  1  0
  5  4  2  0
  4  3  1  0
  3  2  2  0
  2  1  1  0
  6  2  1  0
  7  6  2  0
 13 10  1  0
 14 13  1  0
M  END
>  <id>  (4) 
51

>  <inchikey>  (4) 
SSOIKBIBPGCZFT-UHFFFAOYSA-N

>  <alias>  (4) 
d0615b

>  <smiles>  (4) 
Cc1ncc(CNc2cncc(F)c2)s1

>  <path>  (4) 
/opt/xchem-fragalysis-2/maxwin/BulkDock/TARGETS/Flavi_NS5_RdRp/aligned_files/d0615b/d0615b.pdb

>  <distance_score>  (4) 
None

>  <energy_score>  (4) 
None

>  <compound>  (4) 
SSOIKBIBPGCZFT-UHFFFAOYSA-N

>  <compound_id>  (4) 
43

>  <target>  (4) 
Flavi_NS5_RdRp

$$$$
6izx-a
     RDKit          3D

 14 15  0  0  0  0  0  0  0  0999 V2000
  -15.7510  -43.8290  -22.4670 C   0  0  0  0  0  0  0  0  0  0  0  0
  -15.8490  -42.0870  -24.3960 C   0  0  0  0  0  0  0  0  0  0  0  0
  -18.2930  -38.5390  -26.6440 C   0  0  0  0  0  0  0  0  0  0  0  0
  -17.1520  -39.4290  -27.1950 C   0  0  0  0  0  0  0  0  0  0  0  0
  -15.4490  -40.0890  -25.6840 C   0  0  0  0  0  0  0  0  0  0  0  0
  -14.3320  -39.7530  -24.8350 C   0  0  0  0  0  0  0  0  0  0  0  0
  -13.9800  -40.5950  -23.7550 C   0  0  0  0  0  0  0  0  0  0  0  0
  -14.7050  -41.7520  -23.5260 C   0  0  0  0  0  0  0  0  0  0  0  0
  -16.1890  -41.2640  -25.4380 C   0  0  0  0  0  0  0  0  0  0  0  0
  -17.3790  -40.2730  -28.0120 O   0  0  0  0  0  0  0  0  0  0  0  0
  -15.8210  -39.2640  -26.7530 O   0  0  0  0  0  0  0  0  0  0  0  0
  -14.5710  -42.9320  -22.3710 O   0  0  0  0  0  0  0  0  0  0  0  0
  -16.0720  -44.6540  -21.6670 O   0  0  0  0  0  0  0  0  0  0  0  0
  -16.5130  -43.4770  -23.8710 S   0  0  0  0  0  0  0  0  0  0  0  0
 12  8  1  0
 12  1  1  0
  7  8  1  0
  7  6  2  0
 13  1  2  0
  8  2  2  0
  1 14  1  0
  6  5  1  0
  2 14  1  0
  2  9  1  0
  5  9  2  0
  5 11  1  0
 11  4  1  0
  4 10  2  0
  4  3  1  0
M  END
>  <id>  (5) 
220

>  <inchikey>  (5) 
GBLGMSCMLNOGSY-UHFFFAOYSA-N

>  <alias>  (5) 
6izx-a

>  <smiles>  (5) 
CC(=O)Oc1ccc2oc(=O)sc2c1

>  <path>  (5) 
/opt/xchem-fragalysis-2/maxwin/BulkDock/TARGETS/Flavi_NS5_RdRp/aligned_files/6izx-a/6izx-a.pdb

>  <distance_score>  (5) 
None

>  <energy_score>  (5) 
None

>  <compound>  (5) 
GBLGMSCMLNOGSY-UHFFFAOYSA-N

>  <compound_id>  (5) 
155

>  <target>  (5) 
Flavi_NS5_RdRp

$$$$
