d0160a
     RDKit          3D

 12 13  0  0  0  0  0  0  0  0999 V2000
  -14.8680  -42.8470  -22.4170 C   0  0  0  0  0  0  0  0  0  0  0  0
  -14.3590  -41.4720  -22.7610 C   0  0  0  0  0  0  0  0  0  0  0  0
  -14.6310  -40.6870  -23.8930 C   0  0  0  0  0  0  0  0  0  0  0  0
  -13.9280  -39.5420  -23.7350 N   0  0  0  0  0  0  0  0  0  0  0  0
  -13.2130  -39.5230  -22.5740 N   0  0  0  0  0  0  0  0  0  0  0  0
  -13.4780  -40.6900  -21.9930 C   0  0  0  0  0  0  0  0  0  0  0  0
  -15.4880  -40.9120  -25.0760 C   0  0  0  0  0  0  0  0  0  0  0  0
  -16.4450  -41.9230  -25.0890 C   0  0  0  0  0  0  0  0  0  0  0  0
  -17.2400  -42.0720  -26.2090 C   0  0  0  0  0  0  0  0  0  0  0  0
  -17.1550  -41.2910  -27.2920 N   0  0  0  0  0  0  0  0  0  0  0  0
  -16.2280  -40.3270  -27.2660 C   0  0  0  0  0  0  0  0  0  0  0  0
  -15.3790  -40.1030  -26.1990 C   0  0  0  0  0  0  0  0  0  0  0  0
  2  1  1  0
  2  6  1  0
  6  5  2  0
  5  4  1  0
  4  3  1  0
  3  2  2  0
  7  3  1  0
  7 12  2  0
 12 11  1  0
 11 10  2  0
 10  9  1  0
  9  8  2  0
  8  7  1  0
M  END
>  <id>  (1) 
12

>  <inchikey>  (1) 
DIJNPLGAABOOQW-UHFFFAOYSA-N

>  <alias>  (1) 
d0160a

>  <smiles>  (1) 
Cc1cn[nH]c1-c1ccncc1

>  <path>  (1) 
/opt/xchem-fragalysis-2/maxwin/BulkDock/TARGETS/Flavi_NS5_RdRp/aligned_files/d0160a/d0160a.pdb

>  <distance_score>  (1) 
None

>  <energy_score>  (1) 
None

>  <compound>  (1) 
DIJNPLGAABOOQW-UHFFFAOYSA-N

>  <compound_id>  (1) 
10

>  <target>  (1) 
Flavi_NS5_RdRp

$$$$
d0615b
     RDKit          3D

 15 16  0  0  0  0  0  0  0  0999 V2000
  -18.6710  -43.8090  -24.6670 F   0  0  0  0  0  0  0  0  0  0  0  0
  -17.5250  -43.3270  -24.1160 C   0  0  0  0  0  0  0  0  0  0  0  0
  -17.1250  -43.7850  -22.8860 C   0  0  0  0  0  0  0  0  0  0  0  0
  -16.0090  -43.3300  -22.3050 N   0  0  0  0  0  0  0  0  0  0  0  0
  -15.2990  -42.3990  -22.9570 C   0  0  0  0  0  0  0  0  0  0  0  0
  -16.8090  -42.3840  -24.8030 C   0  0  0  0  0  0  0  0  0  0  0  0
  -15.6590  -41.8830  -24.2030 C   0  0  0  0  0  0  0  0  0  0  0  0
  -14.9140  -40.8750  -24.7970 N   0  0  0  0  0  0  0  0  0  0  0  0
  -15.2780  -40.2110  -26.0360 C   0  0  0  0  0  0  0  0  0  0  0  0
  -16.3830  -39.2140  -25.8960 C   0  0  0  0  0  0  0  0  0  0  0  0
  -17.3690  -38.9300  -26.7710 C   0  0  0  0  0  0  0  0  0  0  0  0
  -18.2750  -37.9550  -26.4070 N   0  0  0  0  0  0  0  0  0  0  0  0
  -16.5660  -38.2060  -24.4990 S   0  0  0  0  0  0  0  0  0  0  0  0
  -17.9680  -37.4870  -25.2330 C   0  0  0  0  0  0  0  0  0  0  0  0
  -18.7400  -36.4070  -24.5480 C   0  0  0  0  0  0  0  0  0  0  0  0
 15 14  1  0
 14 12  2  0
 12 11  1  0
 11 10  2  0
 10  9  1  0
  9  8  1  0
  8  7  1  0
  7  5  1  0
  5  4  2  0
  4  3  1  0
  3  2  2  0
  2  1  1  0
  6  2  1  0
  7  6  2  0
 13 10  1  0
 14 13  1  0
M  END
>  <id>  (2) 
51

>  <inchikey>  (2) 
SSOIKBIBPGCZFT-UHFFFAOYSA-N

>  <alias>  (2) 
d0615b

>  <smiles>  (2) 
Cc1ncc(CNc2cncc(F)c2)s1

>  <path>  (2) 
/opt/xchem-fragalysis-2/maxwin/BulkDock/TARGETS/Flavi_NS5_RdRp/aligned_files/d0615b/d0615b.pdb

>  <distance_score>  (2) 
None

>  <energy_score>  (2) 
None

>  <compound>  (2) 
SSOIKBIBPGCZFT-UHFFFAOYSA-N

>  <compound_id>  (2) 
43

>  <target>  (2) 
Flavi_NS5_RdRp

$$$$
