d0612a
     RDKit          3D

 16 17  0  0  0  0  0  0  0  0999 V2000
  -13.7420  -44.9730  -19.1420 F   0  0  0  0  0  0  0  0  0  0  0  0
  -14.1440  -44.1640  -20.1680 C   0  0  0  0  0  0  0  0  0  0  0  0
  -13.4440  -43.0190  -20.4000 C   0  0  0  0  0  0  0  0  0  0  0  0
  -13.8550  -42.1920  -21.4290 C   0  0  0  0  0  0  0  0  0  0  0  0
  -15.2410  -44.5320  -20.9060 C   0  0  0  0  0  0  0  0  0  0  0  0
  -15.6570  -43.6970  -21.9320 C   0  0  0  0  0  0  0  0  0  0  0  0
  -14.9670  -42.5160  -22.2110 C   0  0  0  0  0  0  0  0  0  0  0  0
  -15.3700  -41.6670  -23.2520 N   0  0  0  0  0  0  0  0  0  0  0  0
  -16.2840  -42.0770  -24.3180 C   0  0  0  0  0  0  0  0  0  0  0  0
  -15.9790  -41.3250  -25.5950 C   0  0  0  0  0  0  0  0  0  0  0  0
  -15.4270  -40.2230  -23.0130 C   0  0  0  0  0  0  0  0  0  0  0  0
  -15.1170  -39.4550  -24.2680 C   0  0  0  0  0  0  0  0  0  0  0  0
  -15.9970  -39.8740  -25.3650 N   0  0  0  0  0  0  0  0  0  0  0  0
  -15.8750  -39.0560  -26.5620 C   0  0  0  0  0  0  0  0  0  0  0  0
  -15.3290  -37.9410  -26.4740 O   0  0  0  0  0  0  0  0  0  0  0  0
  -16.3260  -39.5440  -27.7270 N   0  0  0  0  0  0  0  0  0  0  0  0
 16 14  1  0
 15 14  2  0
 14 13  1  0
 13 10  1  0
 10  9  1  0
  9  8  1  0
 11  8  1  0
 12 11  1  0
 13 12  1  0
  8  7  1  0
  7  4  2  0
  4  3  1  0
  3  2  2  0
  2  1  1  0
  5  2  1  0
  6  5  2  0
  7  6  1  0
M  END
>  <id>  (1) 
49

>  <inchikey>  (1) 
XARVCWHXIZRCGB-UHFFFAOYSA-N

>  <alias>  (1) 
d0612a

>  <smiles>  (1) 
NC(=O)N1CCN(c2ccc(F)cc2)CC1

>  <path>  (1) 
/opt/xchem-fragalysis-2/maxwin/BulkDock/TARGETS/Flavi_NS5_RdRp/aligned_files/d0612a/d0612a.pdb

>  <distance_score>  (1) 
None

>  <energy_score>  (1) 
None

>  <compound>  (1) 
XARVCWHXIZRCGB-UHFFFAOYSA-N

>  <compound_id>  (1) 
42

>  <target>  (1) 
Flavi_NS5_RdRp

$$$$
6ld2-a
     RDKit          3D

 18 19  0  0  0  0  0  0  0  0999 V2000
  -15.0030  -46.0180  -19.8700 C   0  0  0  0  0  0  0  0  0  0  0  0
  -13.8170  -45.6220  -19.2040 C   0  0  1  0  0  0  0  0  0  0  0  0
  -13.3690  -44.3780  -19.6850 C   0  0  2  0  0  0  0  0  0  0  0  0
  -13.3540  -44.3490  -21.0970 C   0  0  0  0  0  0  0  0  0  0  0  0
  -14.0460  -45.3030  -21.8830 C   0  0  1  0  0  0  0  0  0  0  0  0
  -14.9470  -46.2450  -21.2790 C   0  0  2  0  0  0  0  0  0  0  0  0
  -13.8260  -43.9370  -23.9110 C   0  0  0  0  0  0  0  0  0  0  0  0
  -11.4990  -42.7280  -19.5460 C   0  0  0  0  0  0  0  0  0  0  0  0
  -13.9030  -45.6700  -17.7890 C   0  0  0  0  0  0  0  0  0  0  0  0
  -16.1710  -46.6580  -21.7360 C   0  0  0  0  0  0  0  0  0  0  0  0
  -16.7080  -47.8450  -21.3290 C   0  0  0  0  0  0  0  0  0  0  0  0
  -17.8440  -48.1970  -21.9510 C   0  0  0  0  0  0  0  0  0  0  0  0
  -18.2650  -47.3550  -22.8880 C   0  0  0  0  0  0  0  0  0  0  0  0
  -14.6160  -44.7470  -23.0230 O   0  0  0  0  0  0  0  0  0  0  0  0
  -12.1670  -43.9480  -19.1870 O   0  0  0  0  0  0  0  0  0  0  0  0
  -14.9990  -45.6910  -17.1860 O   0  0  0  0  0  0  0  0  0  0  0  0
  -12.8610  -45.6920  -17.0860 O   0  0  0  0  0  0  0  0  0  0  0  0
  -17.1960  -46.0470  -22.9630 S   0  0  0  0  0  0  0  0  0  0  0  0
  2  1  1  0
  3  2  1  0
  4  3  1  0
  5  4  1  0
  6  5  1  0
  6  1  1  0
  2  9  1  1
  6 10  1  6
 11 10  2  0
 12 11  1  0
 13 12  2  0
 14  7  1  0
  5 14  1  6
  3 15  1  1
 15  8  1  0
 16  9  2  0
 17  9  1  0
 18 13  1  0
 18 10  1  0
M  END
>  <id>  (2) 
177665

>  <inchikey>  (2) 
RFIIEINMNPNZEZ-RCWTZXSCSA-N

>  <alias>  (2) 
6ld2-a

>  <smiles>  (2) 
CO[C@H]1C[C@H](OC)[C@H](c2cccs2)C[C@@H]1C(=O)O

>  <path>  (2) 
/opt/xchem-fragalysis-2/maxwin/RdRp_FFF/Flavi_NS5_RdRp_6ld2/aligned_files/6ld2-a/6ld2-a.pdb

>  <distance_score>  (2) 
None

>  <energy_score>  (2) 
None

>  <compound>  (2) 
RFIIEINMNPNZEZ-UHFFFAOYSA-N

>  <compound_id>  (2) 
69378

>  <target>  (2) 
Flavi_NS5_RdRp

$$$$
