d0191a
     RDKit          3D

 12 13  0  0  0  0  0  0  0  0999 V2000
  -14.7240  -41.6290  -24.2740 C   0  0  0  0  0  0  0  0  0  0  0  0
  -15.1980  -42.8250  -23.8310 C   0  0  0  0  0  0  0  0  0  0  0  0
  -16.1900  -43.2470  -24.7330 C   0  0  0  0  0  0  0  0  0  0  0  0
  -16.2940  -42.2990  -25.7020 C   0  0  0  0  0  0  0  0  0  0  0  0
  -15.3980  -41.2940  -25.4230 N   0  0  0  0  0  0  0  0  0  0  0  0
  -15.2480  -40.0370  -26.1670 C   0  0  0  0  0  0  0  0  0  0  0  0
  -16.3550  -39.0540  -25.8750 C   0  0  0  0  0  0  0  0  0  0  0  0
  -17.4060  -38.8590  -26.7540 C   0  0  0  0  0  0  0  0  0  0  0  0
  -18.3830  -37.9610  -26.5720 N   0  0  0  0  0  0  0  0  0  0  0  0
  -18.3220  -37.2060  -25.4700 C   0  0  0  0  0  0  0  0  0  0  0  0
  -17.3280  -37.3290  -24.5260 C   0  0  0  0  0  0  0  0  0  0  0  0
  -16.3410  -38.2750  -24.7310 C   0  0  0  0  0  0  0  0  0  0  0  0
  7  6  1  0
  7 12  2  0
 12 11  1  0
 11 10  2  0
 10  9  1  0
  9  8  2  0
  8  7  1  0
  6  5  1  0
  5  4  1  0
  4  3  2  0
  3  2  1  0
  2  1  2  0
  5  1  1  0
M  END
>  <id>  (1) 
19

>  <inchikey>  (1) 
PJVWPGGKILHMKW-UHFFFAOYSA-N

>  <alias>  (1) 
d0191a

>  <smiles>  (1) 
c1cncc(Cn2cccc2)c1

>  <path>  (1) 
/opt/xchem-fragalysis-2/maxwin/BulkDock/TARGETS/Flavi_NS5_RdRp/aligned_files/d0191a/d0191a.pdb

>  <distance_score>  (1) 
None

>  <energy_score>  (1) 
None

>  <compound>  (1) 
PJVWPGGKILHMKW-UHFFFAOYSA-N

>  <compound_id>  (1) 
16

>  <target>  (1) 
Flavi_NS5_RdRp

$$$$
6ld2-a
     RDKit          3D

 18 19  0  0  0  0  0  0  0  0999 V2000
  -15.0030  -46.0180  -19.8700 C   0  0  0  0  0  0  0  0  0  0  0  0
  -13.8170  -45.6220  -19.2040 C   0  0  1  0  0  0  0  0  0  0  0  0
  -13.3690  -44.3780  -19.6850 C   0  0  2  0  0  0  0  0  0  0  0  0
  -13.3540  -44.3490  -21.0970 C   0  0  0  0  0  0  0  0  0  0  0  0
  -14.0460  -45.3030  -21.8830 C   0  0  1  0  0  0  0  0  0  0  0  0
  -14.9470  -46.2450  -21.2790 C   0  0  2  0  0  0  0  0  0  0  0  0
  -13.8260  -43.9370  -23.9110 C   0  0  0  0  0  0  0  0  0  0  0  0
  -11.4990  -42.7280  -19.5460 C   0  0  0  0  0  0  0  0  0  0  0  0
  -13.9030  -45.6700  -17.7890 C   0  0  0  0  0  0  0  0  0  0  0  0
  -16.1710  -46.6580  -21.7360 C   0  0  0  0  0  0  0  0  0  0  0  0
  -16.7080  -47.8450  -21.3290 C   0  0  0  0  0  0  0  0  0  0  0  0
  -17.8440  -48.1970  -21.9510 C   0  0  0  0  0  0  0  0  0  0  0  0
  -18.2650  -47.3550  -22.8880 C   0  0  0  0  0  0  0  0  0  0  0  0
  -14.6160  -44.7470  -23.0230 O   0  0  0  0  0  0  0  0  0  0  0  0
  -12.1670  -43.9480  -19.1870 O   0  0  0  0  0  0  0  0  0  0  0  0
  -14.9990  -45.6910  -17.1860 O   0  0  0  0  0  0  0  0  0  0  0  0
  -12.8610  -45.6920  -17.0860 O   0  0  0  0  0  0  0  0  0  0  0  0
  -17.1960  -46.0470  -22.9630 S   0  0  0  0  0  0  0  0  0  0  0  0
  2  1  1  0
  3  2  1  0
  4  3  1  0
  5  4  1  0
  6  5  1  0
  6  1  1  0
  2  9  1  1
  6 10  1  6
 11 10  2  0
 12 11  1  0
 13 12  2  0
 14  7  1  0
  5 14  1  6
  3 15  1  1
 15  8  1  0
 16  9  2  0
 17  9  1  0
 18 13  1  0
 18 10  1  0
M  END
>  <id>  (2) 
177665

>  <inchikey>  (2) 
RFIIEINMNPNZEZ-RCWTZXSCSA-N

>  <alias>  (2) 
6ld2-a

>  <smiles>  (2) 
CO[C@H]1C[C@H](OC)[C@H](c2cccs2)C[C@@H]1C(=O)O

>  <path>  (2) 
/opt/xchem-fragalysis-2/maxwin/RdRp_FFF/Flavi_NS5_RdRp_6ld2/aligned_files/6ld2-a/6ld2-a.pdb

>  <distance_score>  (2) 
None

>  <energy_score>  (2) 
None

>  <compound>  (2) 
RFIIEINMNPNZEZ-UHFFFAOYSA-N

>  <compound_id>  (2) 
69378

>  <target>  (2) 
Flavi_NS5_RdRp

$$$$
