z0136a
     RDKit          3D

 13 14  0  0  0  0  0  0  0  0999 V2000
  -24.4750  -30.7000  -17.9950 O   0  0  0  0  0  0  0  0  0  0  0  0
  -24.5730  -31.1190  -19.1440 C   0  0  0  0  0  0  0  0  0  0  0  0
  -23.6490  -32.1690  -19.6880 C   0  0  0  0  0  0  0  0  0  0  0  0
  -25.4890  -30.6470  -20.0290 N   0  0  0  0  0  0  0  0  0  0  0  0
  -26.8500  -30.2880  -19.8390 C   0  0  0  0  0  0  0  0  0  0  0  0
  -27.4570  -30.1630  -18.5820 C   0  0  0  0  0  0  0  0  0  0  0  0
  -26.9100  -30.1910  -17.3180 N   0  0  0  0  0  0  0  0  0  0  0  0
  -27.9120  -29.9830  -16.4060 C   0  0  0  0  0  0  0  0  0  0  0  0
  -29.0990  -29.8200  -17.0450 C   0  0  0  0  0  0  0  0  0  0  0  0
  -28.8410  -29.9300  -18.4440 C   0  0  0  0  0  0  0  0  0  0  0  0
  -29.6130  -29.8020  -19.5990 C   0  0  0  0  0  0  0  0  0  0  0  0
  -29.0160  -29.8700  -20.8460 C   0  0  0  0  0  0  0  0  0  0  0  0
  -27.6570  -30.1120  -20.9650 C   0  0  0  0  0  0  0  0  0  0  0  0
  3  2  1  0
  2  1  2  0
  4  2  1  0
  5  4  1  0
  5 13  2  0
 13 12  1  0
 12 11  2  0
 11 10  1  0
 10  9  1  0
  9  8  2  0
  8  7  1  0
  7  6  1  0
  6  5  1  0
 10  6  2  0
M  END
>  <id>  (1) 
91

>  <inchikey>  (1) 
DCOHDTHCOCZQTO-UHFFFAOYSA-N

>  <alias>  (1) 
z0136a

>  <smiles>  (1) 
CC(=O)Nc1cccc2cc[nH]c12

>  <path>  (1) 
/opt/xchem-fragalysis-2/maxwin/BulkDock/TARGETS/Flavi_NS5_RdRp/aligned_files/z0136a/z0136a.pdb

>  <distance_score>  (1) 
None

>  <energy_score>  (1) 
None

>  <compound>  (1) 
DCOHDTHCOCZQTO-UHFFFAOYSA-N

>  <compound_id>  (1) 
73

>  <target>  (1) 
Flavi_NS5_RdRp

$$$$
z0211a
     RDKit          3D

 14 14  0  0  0  0  0  0  0  0999 V2000
  -26.1990  -31.1140  -22.7050 O   0  0  0  0  0  0  0  0  0  0  0  0
  -25.4400  -31.2080  -21.7450 C   0  0  0  0  0  0  0  0  0  0  0  0
  -24.1640  -31.6450  -21.8600 N   0  0  0  0  0  0  0  0  0  0  0  0
  -23.5970  -32.0810  -23.1290 C   0  0  0  0  0  0  0  0  0  0  0  0
  -22.0380  -31.9840  -23.0990 C   0  0  1  0  0  0  0  0  0  0  0  0
  -21.5440  -31.8850  -21.7560 O   0  0  0  0  0  0  0  0  0  0  0  0
  -21.3930  -33.1630  -23.7940 C   0  0  0  0  0  0  0  0  0  0  0  0
  -25.7870  -30.8530  -20.4680 N   0  0  0  0  0  0  0  0  0  0  0  0
  -27.0380  -30.3840  -20.0010 C   0  0  0  0  0  0  0  0  0  0  0  0
  -27.1570  -30.1750  -18.6330 C   0  0  0  0  0  0  0  0  0  0  0  0
  -28.3980  -29.9090  -18.0800 C   0  0  0  0  0  0  0  0  0  0  0  0
  -29.5160  -29.8390  -18.8790 C   0  0  0  0  0  0  0  0  0  0  0  0
  -29.3970  -30.0030  -20.2420 C   0  0  0  0  0  0  0  0  0  0  0  0
  -28.1630  -30.2660  -20.8110 C   0  0  0  0  0  0  0  0  0  0  0  0
  5  7  1  1
  6  5  1  0
  5  4  1  0
  4  3  1  0
  3  2  1  0
  2  1  2  0
  8  2  1  0
  9  8  1  0
  9 14  2  0
 14 13  1  0
 13 12  2  0
 12 11  1  0
 11 10  2  0
 10  9  1  0
M  END
>  <id>  (2) 
102

>  <inchikey>  (2) 
XEAXHIGGZMUNSO-QMMMGPOBSA-N

>  <alias>  (2) 
z0211a

>  <smiles>  (2) 
C[C@H](O)CNC(=O)Nc1ccccc1

>  <path>  (2) 
/opt/xchem-fragalysis-2/maxwin/BulkDock/TARGETS/Flavi_NS5_RdRp/aligned_files/z0211a/z0211a.pdb

>  <distance_score>  (2) 
None

>  <energy_score>  (2) 
None

>  <compound>  (2) 
XEAXHIGGZMUNSO-UHFFFAOYSA-N

>  <compound_id>  (2) 
81

>  <target>  (2) 
Flavi_NS5_RdRp

$$$$
