z0496a
     RDKit          3D

 15 16  0  0  0  0  0  0  0  0999 V2000
  -25.9590  -28.7680  -25.1600 N   0  0  0  0  0  0  0  0  0  0  0  0
  -26.0420  -28.4970  -23.8550 C   0  0  0  0  0  0  0  0  0  0  0  0
  -25.1620  -27.1780  -23.1240 S   0  0  0  0  0  0  0  0  0  0  0  0
  -26.8550  -29.1130  -23.0370 N   0  0  0  0  0  0  0  0  0  0  0  0
  -26.8350  -28.5260  -21.7860 C   0  0  0  0  0  0  0  0  0  0  0  0
  -26.0000  -27.4500  -21.6360 C   0  0  0  0  0  0  0  0  0  0  0  0
  -25.8900  -26.4610  -20.5040 C   0  0  0  0  0  0  0  0  0  0  0  0
  -27.7430  -29.0820  -20.7730 C   0  0  0  0  0  0  0  0  0  0  0  0
  -29.0480  -29.3700  -21.1360 C   0  0  0  0  0  0  0  0  0  0  0  0
  -29.9530  -29.8900  -20.2210 C   0  0  0  0  0  0  0  0  0  0  0  0
  -31.3530  -30.2010  -20.6760 C   0  0  0  0  0  0  0  0  0  0  0  0
  -29.5450  -30.1300  -18.9000 C   0  0  0  0  0  0  0  0  0  0  0  0
  -30.5170  -30.6340  -17.8710 C   0  0  0  0  0  0  0  0  0  0  0  0
  -28.2350  -29.8430  -18.5440 C   0  0  0  0  0  0  0  0  0  0  0  0
  -27.3440  -29.3200  -19.4600 C   0  0  0  0  0  0  0  0  0  0  0  0
  7  6  1  0
  6  3  1  0
  3  2  1  0
  2  1  1  0
  4  2  2  0
  5  4  1  0
  6  5  2  0
  8  5  1  0
  8 15  2  0
 15 14  1  0
 14 12  2  0
 13 12  1  0
 12 10  1  0
 11 10  1  0
 10  9  2  0
  9  8  1  0
M  END
>  <id>  (1) 
136

>  <inchikey>  (1) 
TYFLPTHRTUYMKD-UHFFFAOYSA-N

>  <alias>  (1) 
z0496a

>  <smiles>  (1) 
Cc1ccc(-c2nc(N)sc2C)cc1C

>  <path>  (1) 
/opt/xchem-fragalysis-2/maxwin/BulkDock/TARGETS/Flavi_NS5_RdRp/aligned_files/z0496a/z0496a.pdb

>  <distance_score>  (1) 
None

>  <energy_score>  (1) 
None

>  <compound>  (1) 
TYFLPTHRTUYMKD-UHFFFAOYSA-N

>  <compound_id>  (1) 
104

>  <target>  (1) 
Flavi_NS5_RdRp

$$$$
z0881a
     RDKit          3D

 12 13  0  0  0  0  0  0  0  0999 V2000
  -28.8040  -29.7870  -15.6710 N   0  0  0  0  0  0  0  0  0  0  0  0
  -28.2740  -29.9650  -16.8810 C   0  0  0  0  0  0  0  0  0  0  0  0
  -26.8810  -30.1890  -17.0480 C   0  0  0  0  0  0  0  0  0  0  0  0
  -25.9270  -30.2580  -15.8840 C   0  0  0  0  0  0  0  0  0  0  0  0
  -29.1380  -29.9450  -17.9050 N   0  0  0  0  0  0  0  0  0  0  0  0
  -28.6580  -30.0910  -19.1790 C   0  0  0  0  0  0  0  0  0  0  0  0
  -27.2910  -30.2840  -19.4410 C   0  0  0  0  0  0  0  0  0  0  0  0
  -26.4240  -30.3340  -18.3360 C   0  0  0  0  0  0  0  0  0  0  0  0
  -29.5580  -29.9940  -20.2660 C   0  0  0  0  0  0  0  0  0  0  0  0
  -29.0980  -30.0740  -21.5480 C   0  0  0  0  0  0  0  0  0  0  0  0
  -27.7510  -30.2710  -21.8060 C   0  0  0  0  0  0  0  0  0  0  0  0
  -26.8580  -30.3810  -20.7830 C   0  0  0  0  0  0  0  0  0  0  0  0
  4  3  1  0
  3  8  2  0
  8  7  1  0
  7 12  2  0
 12 11  1  0
 11 10  2  0
 10  9  1  0
  9  6  2  0
  7  6  1  0
  6  5  1  0
  5  2  2  0
  3  2  1  0
  2  1  1  0
M  END
>  <id>  (2) 
173

>  <inchikey>  (2) 
NCZOVCDTUUZEEA-UHFFFAOYSA-N

>  <alias>  (2) 
z0881a

>  <smiles>  (2) 
Cc1cc2ccccc2nc1N

>  <path>  (2) 
/opt/xchem-fragalysis-2/maxwin/BulkDock/TARGETS/Flavi_NS5_RdRp/aligned_files/z0881a/z0881a.pdb

>  <distance_score>  (2) 
None

>  <energy_score>  (2) 
None

>  <compound>  (2) 
NCZOVCDTUUZEEA-UHFFFAOYSA-N

>  <compound_id>  (2) 
127

>  <target>  (2) 
Flavi_NS5_RdRp

$$$$
