z0900a
     RDKit          3D

 15 16  0  0  0  0  0  0  0  0999 V2000
  -12.2080  -24.9800  -21.8500 Cl  0  0  0  0  0  0  0  0  0  0  0  0
  -13.4250  -24.1190  -20.9670 C   0  0  0  0  0  0  0  0  0  0  0  0
  -14.0750  -24.7400  -19.9180 C   0  0  0  0  0  0  0  0  0  0  0  0
  -15.1830  -24.1300  -19.3580 C   0  0  0  0  0  0  0  0  0  0  0  0
  -13.8030  -22.8810  -21.4080 C   0  0  0  0  0  0  0  0  0  0  0  0
  -14.9150  -22.2780  -20.8600 C   0  0  0  0  0  0  0  0  0  0  0  0
  -15.6340  -22.9090  -19.8560 C   0  0  0  0  0  0  0  0  0  0  0  0
  -16.8890  -22.3740  -19.4440 N   0  0  0  0  0  0  0  0  0  0  0  0
  -17.1570  -21.0090  -19.5850 C   0  0  0  0  0  0  0  0  0  0  0  0
  -16.3690  -20.0980  -19.3590 O   0  0  0  0  0  0  0  0  0  0  0  0
  -18.4630  -20.8970  -20.0130 N   0  0  0  0  0  0  0  0  0  0  0  0
  -19.1020  -22.1040  -20.0820 C   0  0  0  0  0  0  0  0  0  0  0  0
  -20.2500  -22.2800  -20.4650 O   0  0  0  0  0  0  0  0  0  0  0  0
  -18.1270  -23.1570  -19.5940 C   0  0  1  0  0  0  0  0  0  0  0  0
  -18.0540  -24.3050  -20.5880 C   0  0  0  0  0  0  0  0  0  0  0  0
 14 15  1  6
 14  8  1  0
  9  8  1  0
 10  9  2  0
 11  9  1  0
 12 11  1  0
 14 12  1  0
 13 12  2  0
  8  7  1  0
  7  4  2  0
  4  3  1  0
  3  2  2  0
  2  1  1  0
  5  2  1  0
  6  5  2  0
  7  6  1  0
M  END
>  <id>  (1) 
181

>  <inchikey>  (1) 
YRTFBBSKIRZNAW-ZCFIWIBFSA-N

>  <alias>  (1) 
z0900a

>  <smiles>  (1) 
C[C@@H]1C(=O)NC(=O)N1c1ccc(Cl)cc1

>  <path>  (1) 
/opt/xchem-fragalysis-2/maxwin/BulkDock/TARGETS/Flavi_NS5_RdRp/aligned_files/z0900a/z0900a.pdb

>  <distance_score>  (1) 
None

>  <energy_score>  (1) 
None

>  <compound>  (1) 
YRTFBBSKIRZNAW-UHFFFAOYSA-N

>  <compound_id>  (1) 
130

>  <target>  (1) 
Flavi_NS5_RdRp

$$$$
z0936a
     RDKit          3D

 12 13  0  0  0  0  0  0  0  0999 V2000
  -31.0190  -29.9040  -21.3950 C   0  0  0  0  0  0  0  0  0  0  0  0
  -29.9580  -29.9490  -20.3520 C   0  0  0  0  0  0  0  0  0  0  0  0
  -28.6590  -29.9330  -20.6850 N   0  0  0  0  0  0  0  0  0  0  0  0
  -27.8580  -29.9570  -19.6090 N   0  0  0  0  0  0  0  0  0  0  0  0
  -28.6830  -29.9820  -18.5540 C   0  0  0  0  0  0  0  0  0  0  0  0
  -30.0220  -29.9890  -18.9800 C   0  0  0  0  0  0  0  0  0  0  0  0
  -28.1440  -29.9490  -17.1880 C   0  0  0  0  0  0  0  0  0  0  0  0
  -28.9900  -29.8360  -16.0960 C   0  0  0  0  0  0  0  0  0  0  0  0
  -28.4730  -29.7820  -14.8130 C   0  0  0  0  0  0  0  0  0  0  0  0
  -27.1140  -29.8360  -14.6100 C   0  0  0  0  0  0  0  0  0  0  0  0
  -26.2690  -29.9480  -15.6850 C   0  0  0  0  0  0  0  0  0  0  0  0
  -26.7760  -30.0080  -16.9700 C   0  0  0  0  0  0  0  0  0  0  0  0
  2  1  1  0
  2  6  2  0
  6  5  1  0
  5  4  2  0
  4  3  1  0
  3  2  1  0
  7  5  1  0
  7 12  2  0
 12 11  1  0
 11 10  2  0
 10  9  1  0
  9  8  2  0
  8  7  1  0
M  END
>  <id>  (2) 
196

>  <inchikey>  (2) 
QHRSESMSOJZMCO-UHFFFAOYSA-N

>  <alias>  (2) 
z0936a

>  <smiles>  (2) 
Cc1cc(-c2ccccc2)n[nH]1

>  <path>  (2) 
/opt/xchem-fragalysis-2/maxwin/BulkDock/TARGETS/Flavi_NS5_RdRp/aligned_files/z0936a/z0936a.pdb

>  <distance_score>  (2) 
None

>  <energy_score>  (2) 
None

>  <compound>  (2) 
QHRSESMSOJZMCO-UHFFFAOYSA-N

>  <compound_id>  (2) 
136

>  <target>  (2) 
Flavi_NS5_RdRp

$$$$
