z0211a
     RDKit          3D

 14 14  0  0  0  0  0  0  0  0999 V2000
  -26.1990  -31.1140  -22.7050 O   0  0  0  0  0  0  0  0  0  0  0  0
  -25.4400  -31.2080  -21.7450 C   0  0  0  0  0  0  0  0  0  0  0  0
  -24.1640  -31.6450  -21.8600 N   0  0  0  0  0  0  0  0  0  0  0  0
  -23.5970  -32.0810  -23.1290 C   0  0  0  0  0  0  0  0  0  0  0  0
  -22.0380  -31.9840  -23.0990 C   0  0  1  0  0  0  0  0  0  0  0  0
  -21.5440  -31.8850  -21.7560 O   0  0  0  0  0  0  0  0  0  0  0  0
  -21.3930  -33.1630  -23.7940 C   0  0  0  0  0  0  0  0  0  0  0  0
  -25.7870  -30.8530  -20.4680 N   0  0  0  0  0  0  0  0  0  0  0  0
  -27.0380  -30.3840  -20.0010 C   0  0  0  0  0  0  0  0  0  0  0  0
  -27.1570  -30.1750  -18.6330 C   0  0  0  0  0  0  0  0  0  0  0  0
  -28.3980  -29.9090  -18.0800 C   0  0  0  0  0  0  0  0  0  0  0  0
  -29.5160  -29.8390  -18.8790 C   0  0  0  0  0  0  0  0  0  0  0  0
  -29.3970  -30.0030  -20.2420 C   0  0  0  0  0  0  0  0  0  0  0  0
  -28.1630  -30.2660  -20.8110 C   0  0  0  0  0  0  0  0  0  0  0  0
  5  7  1  1
  6  5  1  0
  5  4  1  0
  4  3  1  0
  3  2  1  0
  2  1  2  0
  8  2  1  0
  9  8  1  0
  9 14  2  0
 14 13  1  0
 13 12  2  0
 12 11  1  0
 11 10  2  0
 10  9  1  0
M  END
>  <id>  (1) 
102

>  <inchikey>  (1) 
XEAXHIGGZMUNSO-QMMMGPOBSA-N

>  <alias>  (1) 
z0211a

>  <smiles>  (1) 
C[C@H](O)CNC(=O)Nc1ccccc1

>  <path>  (1) 
/opt/xchem-fragalysis-2/maxwin/BulkDock/TARGETS/Flavi_NS5_RdRp/aligned_files/z0211a/z0211a.pdb

>  <distance_score>  (1) 
None

>  <energy_score>  (1) 
None

>  <compound>  (1) 
XEAXHIGGZMUNSO-UHFFFAOYSA-N

>  <compound_id>  (1) 
81

>  <target>  (1) 
Flavi_NS5_RdRp

$$$$
z0764a
     RDKit          3D

 11 11  0  0  0  0  0  0  0  0999 V2000
  -26.6470  -31.6540  -21.9150 O   0  0  0  0  0  0  0  0  0  0  0  0
  -27.4330  -30.4630  -21.7500 S   0  0  0  0  0  0  0  0  0  0  0  0
  -28.6430  -30.3350  -22.5100 O   0  0  0  0  0  0  0  0  0  0  0  0
  -26.4190  -29.0730  -22.0780 C   0  0  0  0  0  0  0  0  0  0  0  0
  -27.8360  -30.2980  -20.0390 C   0  0  0  0  0  0  0  0  0  0  0  0
  -29.1640  -30.2660  -19.6450 C   0  0  0  0  0  0  0  0  0  0  0  0
  -29.4680  -30.1500  -18.3020 C   0  0  0  0  0  0  0  0  0  0  0  0
  -26.8140  -30.2020  -19.1110 C   0  0  0  0  0  0  0  0  0  0  0  0
  -27.1220  -30.0800  -17.7720 C   0  0  0  0  0  0  0  0  0  0  0  0
  -28.4390  -30.0660  -17.3870 C   0  0  0  0  0  0  0  0  0  0  0  0
  -28.8450  -29.9860  -15.5420 Br  0  0  0  0  0  0  0  0  0  0  0  0
 11 10  1  0
 10  7  2  0
  7  6  1  0
  6  5  2  0
  5  2  1  0
  4  2  1  0
  3  2  2  0
  2  1  2  0
  8  5  1  0
  9  8  2  0
 10  9  1  0
M  END
>  <id>  (2) 
161

>  <inchikey>  (2) 
FJLFSYRGFJDJMQ-UHFFFAOYSA-N

>  <alias>  (2) 
z0764a

>  <smiles>  (2) 
CS(=O)(=O)c1ccc(Br)cc1

>  <path>  (2) 
/opt/xchem-fragalysis-2/maxwin/BulkDock/TARGETS/Flavi_NS5_RdRp/aligned_files/z0764a/z0764a.pdb

>  <distance_score>  (2) 
None

>  <energy_score>  (2) 
None

>  <compound>  (2) 
FJLFSYRGFJDJMQ-UHFFFAOYSA-N

>  <compound_id>  (2) 
121

>  <target>  (2) 
Flavi_NS5_RdRp

$$$$
