z0483a
     RDKit          3D

 17 18  0  0  0  0  0  0  0  0999 V2000
  -29.1540  -28.7900  -17.1470 F   0  0  0  0  0  0  0  0  0  0  0  0
  -28.2140  -29.2590  -18.0100 C   0  0  0  0  0  0  0  0  0  0  0  0
  -26.9030  -29.2670  -17.6050 C   0  0  0  0  0  0  0  0  0  0  0  0
  -25.9600  -29.8420  -18.4390 C   0  0  0  0  0  0  0  0  0  0  0  0
  -28.6270  -29.7570  -19.2180 C   0  0  0  0  0  0  0  0  0  0  0  0
  -27.6800  -30.3300  -20.0490 C   0  0  0  0  0  0  0  0  0  0  0  0
  -26.3430  -30.3960  -19.6580 C   0  0  0  0  0  0  0  0  0  0  0  0
  -25.3650  -31.1020  -20.4030 N   0  0  0  0  0  0  0  0  0  0  0  0
  -25.3940  -31.3280  -21.7440 C   0  0  0  0  0  0  0  0  0  0  0  0
  -26.3100  -30.9230  -22.4570 O   0  0  0  0  0  0  0  0  0  0  0  0
  -24.3490  -32.0440  -22.2610 N   0  0  0  0  0  0  0  0  0  0  0  0
  -24.3310  -32.0160  -23.7320 C   0  0  0  0  0  0  0  0  0  0  0  0
  -23.5500  -33.1910  -24.2760 C   0  0  0  0  0  0  0  0  0  0  0  0
  -23.0060  -32.1660  -21.6670 C   0  0  0  0  0  0  0  0  0  0  0  0
  -22.2380  -33.3270  -22.2970 C   0  0  0  0  0  0  0  0  0  0  0  0
  -22.1900  -33.1910  -23.7510 N   0  0  0  0  0  0  0  0  0  0  0  0
  -21.4090  -34.2680  -24.3500 C   0  0  0  0  0  0  0  0  0  0  0  0
 17 16  1  0
 16 13  1  0
 13 12  1  0
 12 11  1  0
 14 11  1  0
 15 14  1  0
 16 15  1  0
 11  9  1  0
 10  9  2  0
  9  8  1  0
  8  7  1  0
  7  4  2  0
  4  3  1  0
  3  2  2  0
  2  1  1  0
  5  2  1  0
  6  5  2  0
  7  6  1  0
M  END
>  <id>  (1) 
133

>  <inchikey>  (1) 
MDBPFVSVLGYVCQ-UHFFFAOYSA-N

>  <alias>  (1) 
z0483a

>  <smiles>  (1) 
CN1CCN(C(=O)Nc2ccc(F)cc2)CC1

>  <path>  (1) 
/opt/xchem-fragalysis-2/maxwin/BulkDock/TARGETS/Flavi_NS5_RdRp/aligned_files/z0483a/z0483a.pdb

>  <distance_score>  (1) 
None

>  <energy_score>  (1) 
None

>  <compound>  (1) 
MDBPFVSVLGYVCQ-UHFFFAOYSA-N

>  <compound_id>  (1) 
102

>  <target>  (1) 
Flavi_NS5_RdRp

$$$$
z0764a
     RDKit          3D

 11 11  0  0  0  0  0  0  0  0999 V2000
  -26.6470  -31.6540  -21.9150 O   0  0  0  0  0  0  0  0  0  0  0  0
  -27.4330  -30.4630  -21.7500 S   0  0  0  0  0  0  0  0  0  0  0  0
  -28.6430  -30.3350  -22.5100 O   0  0  0  0  0  0  0  0  0  0  0  0
  -26.4190  -29.0730  -22.0780 C   0  0  0  0  0  0  0  0  0  0  0  0
  -27.8360  -30.2980  -20.0390 C   0  0  0  0  0  0  0  0  0  0  0  0
  -29.1640  -30.2660  -19.6450 C   0  0  0  0  0  0  0  0  0  0  0  0
  -29.4680  -30.1500  -18.3020 C   0  0  0  0  0  0  0  0  0  0  0  0
  -26.8140  -30.2020  -19.1110 C   0  0  0  0  0  0  0  0  0  0  0  0
  -27.1220  -30.0800  -17.7720 C   0  0  0  0  0  0  0  0  0  0  0  0
  -28.4390  -30.0660  -17.3870 C   0  0  0  0  0  0  0  0  0  0  0  0
  -28.8450  -29.9860  -15.5420 Br  0  0  0  0  0  0  0  0  0  0  0  0
 11 10  1  0
 10  7  2  0
  7  6  1  0
  6  5  2  0
  5  2  1  0
  4  2  1  0
  3  2  2  0
  2  1  2  0
  8  5  1  0
  9  8  2  0
 10  9  1  0
M  END
>  <id>  (2) 
161

>  <inchikey>  (2) 
FJLFSYRGFJDJMQ-UHFFFAOYSA-N

>  <alias>  (2) 
z0764a

>  <smiles>  (2) 
CS(=O)(=O)c1ccc(Br)cc1

>  <path>  (2) 
/opt/xchem-fragalysis-2/maxwin/BulkDock/TARGETS/Flavi_NS5_RdRp/aligned_files/z0764a/z0764a.pdb

>  <distance_score>  (2) 
None

>  <energy_score>  (2) 
None

>  <compound>  (2) 
FJLFSYRGFJDJMQ-UHFFFAOYSA-N

>  <compound_id>  (2) 
121

>  <target>  (2) 
Flavi_NS5_RdRp

$$$$
