z0519a
     RDKit          3D

 18 19  0  0  0  0  0  0  0  0999 V2000
  -27.0300  -32.7900  -23.7430 O   0  0  0  0  0  0  0  0  0  0  0  0
  -26.4970  -31.6890  -23.7610 C   0  0  0  0  0  0  0  0  0  0  0  0
  -26.7060  -30.6990  -24.6870 N   0  0  0  0  0  0  0  0  0  0  0  0
  -25.9630  -29.5610  -24.4020 C   0  0  0  0  0  0  0  0  0  0  0  0
  -25.9710  -28.5220  -25.0550 O   0  0  0  0  0  0  0  0  0  0  0  0
  -25.2560  -29.8060  -23.2780 N   0  0  0  0  0  0  0  0  0  0  0  0
  -25.4950  -31.1470  -22.7390 C   0  0  2  0  0  0  0  0  0  0  0  0
  -24.2050  -31.9720  -22.7210 C   0  0  0  0  0  0  0  0  0  0  0  0
  -26.1140  -31.1110  -21.3450 C   0  0  0  0  0  0  0  0  0  0  0  0
  -27.2380  -30.0820  -21.1900 C   0  0  0  0  0  0  0  0  0  0  0  0
  -27.7710  -30.0780  -19.7820 C   0  0  0  0  0  0  0  0  0  0  0  0
  -29.0850  -30.4210  -19.5110 C   0  0  0  0  0  0  0  0  0  0  0  0
  -29.5550  -30.4840  -18.2110 C   0  0  0  0  0  0  0  0  0  0  0  0
  -26.9350  -29.7890  -18.7170 C   0  0  0  0  0  0  0  0  0  0  0  0
  -27.3860  -29.8490  -17.4130 C   0  0  0  0  0  0  0  0  0  0  0  0
  -28.7000  -30.1960  -17.1580 C   0  0  0  0  0  0  0  0  0  0  0  0
  -29.1520  -30.2400  -15.8650 O   0  0  0  0  0  0  0  0  0  0  0  0
  -28.2380  -30.6540  -14.8460 C   0  0  0  0  0  0  0  0  0  0  0  0
 18 17  1  0
 17 16  1  0
 16 13  1  0
 13 12  2  0
 12 11  1  0
 11 10  1  0
 10  9  1  0
  9  7  1  0
  7  8  1  1
  7  6  1  0
  6  4  1  0
  5  4  2  0
  4  3  1  0
  3  2  1  0
  7  2  1  0
  2  1  2  0
 14 11  2  0
 15 14  1  0
 16 15  2  0
M  END
>  <id>  (1) 
140

>  <inchikey>  (1) 
HYRDVXQOZUFAFW-ZDUSSCGKSA-N

>  <alias>  (1) 
z0519a

>  <smiles>  (1) 
COc1ccc(CC[C@]2(C)NC(=O)NC2=O)cc1

>  <path>  (1) 
/opt/xchem-fragalysis-2/maxwin/BulkDock/TARGETS/Flavi_NS5_RdRp/aligned_files/z0519a/z0519a.pdb

>  <distance_score>  (1) 
None

>  <energy_score>  (1) 
None

>  <compound>  (1) 
HYRDVXQOZUFAFW-UHFFFAOYSA-N

>  <compound_id>  (1) 
106

>  <target>  (1) 
Flavi_NS5_RdRp

$$$$
z0936a
     RDKit          3D

 12 13  0  0  0  0  0  0  0  0999 V2000
  -31.0190  -29.9040  -21.3950 C   0  0  0  0  0  0  0  0  0  0  0  0
  -29.9580  -29.9490  -20.3520 C   0  0  0  0  0  0  0  0  0  0  0  0
  -28.6590  -29.9330  -20.6850 N   0  0  0  0  0  0  0  0  0  0  0  0
  -27.8580  -29.9570  -19.6090 N   0  0  0  0  0  0  0  0  0  0  0  0
  -28.6830  -29.9820  -18.5540 C   0  0  0  0  0  0  0  0  0  0  0  0
  -30.0220  -29.9890  -18.9800 C   0  0  0  0  0  0  0  0  0  0  0  0
  -28.1440  -29.9490  -17.1880 C   0  0  0  0  0  0  0  0  0  0  0  0
  -28.9900  -29.8360  -16.0960 C   0  0  0  0  0  0  0  0  0  0  0  0
  -28.4730  -29.7820  -14.8130 C   0  0  0  0  0  0  0  0  0  0  0  0
  -27.1140  -29.8360  -14.6100 C   0  0  0  0  0  0  0  0  0  0  0  0
  -26.2690  -29.9480  -15.6850 C   0  0  0  0  0  0  0  0  0  0  0  0
  -26.7760  -30.0080  -16.9700 C   0  0  0  0  0  0  0  0  0  0  0  0
  2  1  1  0
  2  6  2  0
  6  5  1  0
  5  4  2  0
  4  3  1  0
  3  2  1  0
  7  5  1  0
  7 12  2  0
 12 11  1  0
 11 10  2  0
 10  9  1  0
  9  8  2  0
  8  7  1  0
M  END
>  <id>  (2) 
196

>  <inchikey>  (2) 
QHRSESMSOJZMCO-UHFFFAOYSA-N

>  <alias>  (2) 
z0936a

>  <smiles>  (2) 
Cc1cc(-c2ccccc2)n[nH]1

>  <path>  (2) 
/opt/xchem-fragalysis-2/maxwin/BulkDock/TARGETS/Flavi_NS5_RdRp/aligned_files/z0936a/z0936a.pdb

>  <distance_score>  (2) 
None

>  <energy_score>  (2) 
None

>  <compound>  (2) 
QHRSESMSOJZMCO-UHFFFAOYSA-N

>  <compound_id>  (2) 
136

>  <target>  (2) 
Flavi_NS5_RdRp

$$$$
