d0248a
     RDKit          3D

 15 15  0  0  0  0  0  0  0  0999 V2000
   -7.0320  -71.1660  -20.4820 Cl  0  0  0  0  0  0  0  0  0  0  0  0
   -8.7430  -71.0200  -20.1870 C   0  0  0  0  0  0  0  0  0  0  0  0
   -9.2120  -71.1280  -18.8950 C   0  0  0  0  0  0  0  0  0  0  0  0
  -10.5600  -70.9230  -18.6570 C   0  0  0  0  0  0  0  0  0  0  0  0
  -11.4220  -70.6340  -19.6990 C   0  0  0  0  0  0  0  0  0  0  0  0
   -9.5880  -70.7500  -21.2480 C   0  0  0  0  0  0  0  0  0  0  0  0
  -10.9480  -70.5620  -21.0070 C   0  0  0  0  0  0  0  0  0  0  0  0
  -11.8990  -70.3120  -22.1350 C   0  0  0  0  0  0  0  0  0  0  0  0
  -11.5080  -69.8210  -23.1900 O   0  0  0  0  0  0  0  0  0  0  0  0
  -13.1850  -70.6790  -21.9440 N   0  0  0  0  0  0  0  0  0  0  0  0
  -14.3290  -70.5310  -22.8740 C   0  0  0  0  0  0  0  0  0  0  0  0
  -14.3380  -69.1100  -23.4320 C   0  0  0  0  0  0  0  0  0  0  0  0
  -15.6200  -70.7710  -22.0890 C   0  0  0  0  0  0  0  0  0  0  0  0
  -14.2780  -71.5420  -24.0360 C   0  0  0  0  0  0  0  0  0  0  0  0
  -13.0170  -71.6100  -24.6870 O   0  0  0  0  0  0  0  0  0  0  0  0
 12 11  1  0
 13 11  1  0
 14 11  1  0
 15 14  1  0
 11 10  1  0
 10  8  1  0
  9  8  2  0
  8  7  1  0
  7  5  1  0
  5  4  2  0
  4  3  1  0
  3  2  2  0
  2  1  1  0
  6  2  1  0
  7  6  2  0
M  END
>  <id>  (1) 
22

>  <inchikey>  (1) 
XZDXDRPMHCVWBK-UHFFFAOYSA-N

>  <alias>  (1) 
d0248a

>  <smiles>  (1) 
CC(C)(CO)NC(=O)c1cccc(Cl)c1

>  <path>  (1) 
/opt/xchem-fragalysis-2/maxwin/BulkDock/TARGETS/Flavi_NS5_RdRp/aligned_files/d0248a/d0248a.pdb

>  <distance_score>  (1) 
None

>  <energy_score>  (1) 
None

>  <compound>  (1) 
XZDXDRPMHCVWBK-UHFFFAOYSA-N

>  <compound_id>  (1) 
18

>  <target>  (1) 
Flavi_NS5_RdRp

$$$$
d0376a
     RDKit          3D

 16 17  0  0  0  0  0  0  0  0999 V2000
   -6.4280  -72.6450  -21.5430 O   0  0  0  0  0  0  0  0  0  0  0  0
   -6.4170  -71.8730  -20.5950 C   0  0  0  0  0  0  0  0  0  0  0  0
   -7.7230  -71.4680  -20.0230 C   0  0  0  0  0  0  0  0  0  0  0  0
   -8.9560  -70.6680  -20.9380 S   0  0  0  0  0  0  0  0  0  0  0  0
  -10.0000  -70.6220  -19.6020 C   0  0  0  0  0  0  0  0  0  0  0  0
   -9.4690  -71.1860  -18.4970 C   0  0  0  0  0  0  0  0  0  0  0  0
   -8.1310  -71.6920  -18.7130 C   0  0  0  0  0  0  0  0  0  0  0  0
   -5.2630  -71.3980  -20.0790 N   0  0  0  0  0  0  0  0  0  0  0  0
   -5.1330  -70.4250  -18.9860 C   0  0  0  0  0  0  0  0  0  0  0  0
   -4.2120  -69.2840  -19.4080 C   0  0  0  0  0  0  0  0  0  0  0  0
   -3.9510  -71.8690  -20.5420 C   0  0  0  0  0  0  0  0  0  0  0  0
   -3.1020  -70.6950  -20.9780 C   0  0  0  0  0  0  0  0  0  0  0  0
   -2.8950  -69.7840  -19.8480 N   0  0  0  0  0  0  0  0  0  0  0  0
   -1.8840  -68.7160  -19.9970 C   0  0  0  0  0  0  0  0  0  0  0  0
   -0.6590  -69.1460  -20.7880 C   0  0  0  0  0  0  0  0  0  0  0  0
   -2.4580  -67.4170  -20.5360 C   0  0  0  0  0  0  0  0  0  0  0  0
 16 14  1  0
 15 14  1  0
 14 13  1  0
 13 10  1  0
 10  9  1  0
  9  8  1  0
 11  8  1  0
 12 11  1  0
 13 12  1  0
  8  2  1  0
  2  1  2  0
  3  2  1  0
  3  7  2  0
  7  6  1  0
  6  5  2  0
  5  4  1  0
  4  3  1  0
M  END
>  <id>  (2) 
33

>  <inchikey>  (2) 
ZEVVAPJSMUTCRY-UHFFFAOYSA-N

>  <alias>  (2) 
d0376a

>  <smiles>  (2) 
CC(C)N1CCN(C(=O)c2cccs2)CC1

>  <path>  (2) 
/opt/xchem-fragalysis-2/maxwin/BulkDock/TARGETS/Flavi_NS5_RdRp/aligned_files/d0376a/d0376a.pdb

>  <distance_score>  (2) 
None

>  <energy_score>  (2) 
None

>  <compound>  (2) 
ZEVVAPJSMUTCRY-UHFFFAOYSA-N

>  <compound_id>  (2) 
29

>  <target>  (2) 
Flavi_NS5_RdRp

$$$$
