d0174a
     RDKit          3D

 16 17  0  0  0  0  0  0  0  0999 V2000
  -14.5260  -69.9790  -19.0550 O   0  0  0  0  0  0  0  0  0  0  0  0
  -13.8380  -69.6370  -20.2620 S   0  0  0  0  0  0  0  0  0  0  0  0
  -13.0170  -68.4660  -20.2910 O   0  0  0  0  0  0  0  0  0  0  0  0
  -15.0450  -69.4890  -21.5600 C   0  0  0  0  0  0  0  0  0  0  0  0
  -14.4150  -69.4670  -22.9280 C   0  0  0  0  0  0  0  0  0  0  0  0
  -12.8600  -70.9160  -20.6410 N   0  0  0  0  0  0  0  0  0  0  0  0
  -11.5650  -70.7230  -21.3130 C   0  0  0  0  0  0  0  0  0  0  0  0
  -10.3650  -70.9940  -20.4370 C   0  0  0  0  0  0  0  0  0  0  0  0
   -9.0840  -70.7120  -20.9060 C   0  0  0  0  0  0  0  0  0  0  0  0
   -8.0010  -70.9900  -20.0990 C   0  0  0  0  0  0  0  0  0  0  0  0
   -6.6650  -70.7580  -20.3430 O   0  0  0  0  0  0  0  0  0  0  0  0
   -6.0100  -71.0190  -19.0990 C   0  0  0  0  0  0  0  0  0  0  0  0
   -6.9370  -71.6950  -18.2470 O   0  0  0  0  0  0  0  0  0  0  0  0
   -8.1640  -71.5420  -18.8550 C   0  0  0  0  0  0  0  0  0  0  0  0
   -9.4190  -71.8390  -18.3620 C   0  0  0  0  0  0  0  0  0  0  0  0
  -10.5140  -71.5510  -19.1640 C   0  0  0  0  0  0  0  0  0  0  0  0
  5  4  1  0
  4  2  1  0
  3  2  2  0
  2  1  2  0
  6  2  1  0
  7  6  1  0
  8  7  1  0
  8 16  2  0
 16 15  1  0
 15 14  2  0
 14 13  1  0
 13 12  1  0
 12 11  1  0
 11 10  1  0
 14 10  1  0
 10  9  2  0
  9  8  1  0
M  END
>  <id>  (1) 
17

>  <inchikey>  (1) 
UKPLBUIFSDRLEZ-UHFFFAOYSA-N

>  <alias>  (1) 
d0174a

>  <smiles>  (1) 
CCS(=O)(=O)NCc1ccc2c(c1)OCO2

>  <path>  (1) 
/opt/xchem-fragalysis-2/maxwin/BulkDock/TARGETS/Flavi_NS5_RdRp/aligned_files/d0174a/d0174a.pdb

>  <distance_score>  (1) 
None

>  <energy_score>  (1) 
None

>  <compound>  (1) 
UKPLBUIFSDRLEZ-UHFFFAOYSA-N

>  <compound_id>  (1) 
14

>  <target>  (1) 
Flavi_NS5_RdRp

$$$$
d0587a
     RDKit          3D

 15 16  0  0  0  0  0  0  0  0999 V2000
   -9.6800  -71.2580  -17.3890 Cl  0  0  0  0  0  0  0  0  0  0  0  0
   -9.7600  -71.2390  -19.1270 C   0  0  0  0  0  0  0  0  0  0  0  0
  -10.8380  -70.5820  -19.7040 C   0  0  0  0  0  0  0  0  0  0  0  0
  -10.8020  -70.0660  -20.9340 N   0  0  0  0  0  0  0  0  0  0  0  0
   -9.6570  -70.2200  -21.5840 C   0  0  0  0  0  0  0  0  0  0  0  0
   -8.5510  -70.8270  -21.1560 N   0  0  0  0  0  0  0  0  0  0  0  0
   -8.6130  -71.3480  -19.9200 C   0  0  0  0  0  0  0  0  0  0  0  0
   -7.5070  -72.0570  -19.5180 N   0  0  0  0  0  0  0  0  0  0  0  0
   -7.4030  -72.7710  -18.2490 C   0  0  0  0  0  0  0  0  0  0  0  0
   -6.3570  -72.1930  -20.4120 C   0  0  0  0  0  0  0  0  0  0  0  0
   -4.9870  -71.8380  -19.8190 C   0  0  2  0  0  0  0  0  0  0  0  0
   -4.7880  -70.3350  -19.5900 C   0  0  0  0  0  0  0  0  0  0  0  0
   -3.4450  -70.0410  -19.9630 O   0  0  0  0  0  0  0  0  0  0  0  0
   -3.1820  -70.8560  -21.0840 C   0  0  0  0  0  0  0  0  0  0  0  0
   -3.8210  -72.1860  -20.7670 C   0  0  0  0  0  0  0  0  0  0  0  0
  9  8  1  0
 10  8  1  0
 11 10  1  6
 11 15  1  0
 15 14  1  0
 14 13  1  0
 13 12  1  0
 12 11  1  0
  8  7  1  0
  7  6  2  0
  6  5  1  0
  5  4  2  0
  4  3  1  0
  3  2  2  0
  7  2  1  0
  2  1  1  0
M  END
>  <id>  (2) 
48

>  <inchikey>  (2) 
OYKZBUOZAYBEHE-MRVPVSSYSA-N

>  <alias>  (2) 
d0587a

>  <smiles>  (2) 
CN(C[C@H]1CCOC1)c1ncncc1Cl

>  <path>  (2) 
/opt/xchem-fragalysis-2/maxwin/BulkDock/TARGETS/Flavi_NS5_RdRp/aligned_files/d0587a/d0587a.pdb

>  <distance_score>  (2) 
None

>  <energy_score>  (2) 
None

>  <compound>  (2) 
OYKZBUOZAYBEHE-UHFFFAOYSA-N

>  <compound_id>  (2) 
41

>  <target>  (2) 
Flavi_NS5_RdRp

$$$$
