d0174a
     RDKit          3D

 16 17  0  0  0  0  0  0  0  0999 V2000
  -14.5260  -69.9790  -19.0550 O   0  0  0  0  0  0  0  0  0  0  0  0
  -13.8380  -69.6370  -20.2620 S   0  0  0  0  0  0  0  0  0  0  0  0
  -13.0170  -68.4660  -20.2910 O   0  0  0  0  0  0  0  0  0  0  0  0
  -15.0450  -69.4890  -21.5600 C   0  0  0  0  0  0  0  0  0  0  0  0
  -14.4150  -69.4670  -22.9280 C   0  0  0  0  0  0  0  0  0  0  0  0
  -12.8600  -70.9160  -20.6410 N   0  0  0  0  0  0  0  0  0  0  0  0
  -11.5650  -70.7230  -21.3130 C   0  0  0  0  0  0  0  0  0  0  0  0
  -10.3650  -70.9940  -20.4370 C   0  0  0  0  0  0  0  0  0  0  0  0
   -9.0840  -70.7120  -20.9060 C   0  0  0  0  0  0  0  0  0  0  0  0
   -8.0010  -70.9900  -20.0990 C   0  0  0  0  0  0  0  0  0  0  0  0
   -6.6650  -70.7580  -20.3430 O   0  0  0  0  0  0  0  0  0  0  0  0
   -6.0100  -71.0190  -19.0990 C   0  0  0  0  0  0  0  0  0  0  0  0
   -6.9370  -71.6950  -18.2470 O   0  0  0  0  0  0  0  0  0  0  0  0
   -8.1640  -71.5420  -18.8550 C   0  0  0  0  0  0  0  0  0  0  0  0
   -9.4190  -71.8390  -18.3620 C   0  0  0  0  0  0  0  0  0  0  0  0
  -10.5140  -71.5510  -19.1640 C   0  0  0  0  0  0  0  0  0  0  0  0
  5  4  1  0
  4  2  1  0
  3  2  2  0
  2  1  2  0
  6  2  1  0
  7  6  1  0
  8  7  1  0
  8 16  2  0
 16 15  1  0
 15 14  2  0
 14 13  1  0
 13 12  1  0
 12 11  1  0
 11 10  1  0
 14 10  1  0
 10  9  2  0
  9  8  1  0
M  END
>  <id>  (1) 
17

>  <inchikey>  (1) 
UKPLBUIFSDRLEZ-UHFFFAOYSA-N

>  <alias>  (1) 
d0174a

>  <smiles>  (1) 
CCS(=O)(=O)NCc1ccc2c(c1)OCO2

>  <path>  (1) 
/opt/xchem-fragalysis-2/maxwin/BulkDock/TARGETS/Flavi_NS5_RdRp/aligned_files/d0174a/d0174a.pdb

>  <distance_score>  (1) 
None

>  <energy_score>  (1) 
None

>  <compound>  (1) 
UKPLBUIFSDRLEZ-UHFFFAOYSA-N

>  <compound_id>  (1) 
14

>  <target>  (1) 
Flavi_NS5_RdRp

$$$$
d0376a
     RDKit          3D

 16 17  0  0  0  0  0  0  0  0999 V2000
   -6.4280  -72.6450  -21.5430 O   0  0  0  0  0  0  0  0  0  0  0  0
   -6.4170  -71.8730  -20.5950 C   0  0  0  0  0  0  0  0  0  0  0  0
   -7.7230  -71.4680  -20.0230 C   0  0  0  0  0  0  0  0  0  0  0  0
   -8.9560  -70.6680  -20.9380 S   0  0  0  0  0  0  0  0  0  0  0  0
  -10.0000  -70.6220  -19.6020 C   0  0  0  0  0  0  0  0  0  0  0  0
   -9.4690  -71.1860  -18.4970 C   0  0  0  0  0  0  0  0  0  0  0  0
   -8.1310  -71.6920  -18.7130 C   0  0  0  0  0  0  0  0  0  0  0  0
   -5.2630  -71.3980  -20.0790 N   0  0  0  0  0  0  0  0  0  0  0  0
   -5.1330  -70.4250  -18.9860 C   0  0  0  0  0  0  0  0  0  0  0  0
   -4.2120  -69.2840  -19.4080 C   0  0  0  0  0  0  0  0  0  0  0  0
   -3.9510  -71.8690  -20.5420 C   0  0  0  0  0  0  0  0  0  0  0  0
   -3.1020  -70.6950  -20.9780 C   0  0  0  0  0  0  0  0  0  0  0  0
   -2.8950  -69.7840  -19.8480 N   0  0  0  0  0  0  0  0  0  0  0  0
   -1.8840  -68.7160  -19.9970 C   0  0  0  0  0  0  0  0  0  0  0  0
   -0.6590  -69.1460  -20.7880 C   0  0  0  0  0  0  0  0  0  0  0  0
   -2.4580  -67.4170  -20.5360 C   0  0  0  0  0  0  0  0  0  0  0  0
 16 14  1  0
 15 14  1  0
 14 13  1  0
 13 10  1  0
 10  9  1  0
  9  8  1  0
 11  8  1  0
 12 11  1  0
 13 12  1  0
  8  2  1  0
  2  1  2  0
  3  2  1  0
  3  7  2  0
  7  6  1  0
  6  5  2  0
  5  4  1  0
  4  3  1  0
M  END
>  <id>  (2) 
33

>  <inchikey>  (2) 
ZEVVAPJSMUTCRY-UHFFFAOYSA-N

>  <alias>  (2) 
d0376a

>  <smiles>  (2) 
CC(C)N1CCN(C(=O)c2cccs2)CC1

>  <path>  (2) 
/opt/xchem-fragalysis-2/maxwin/BulkDock/TARGETS/Flavi_NS5_RdRp/aligned_files/d0376a/d0376a.pdb

>  <distance_score>  (2) 
None

>  <energy_score>  (2) 
None

>  <compound>  (2) 
ZEVVAPJSMUTCRY-UHFFFAOYSA-N

>  <compound_id>  (2) 
29

>  <target>  (2) 
Flavi_NS5_RdRp

$$$$
