d0264a
     RDKit          3D

 15 15  0  0  0  0  0  0  0  0999 V2000
  -23.1640  -45.9380  -18.0490 O   0  0  0  0  0  0  0  0  0  0  0  0
  -22.2460  -46.0170  -17.2360 C   0  0  0  0  0  0  0  0  0  0  0  0
  -22.2040  -47.1360  -16.1890 C   0  0  0  0  0  0  0  0  0  0  0  0
  -23.2590  -46.8890  -15.1120 C   0  0  0  0  0  0  0  0  0  0  0  0
  -22.3910  -48.4810  -16.8760 C   0  0  0  0  0  0  0  0  0  0  0  0
  -21.2220  -45.1550  -17.2120 N   0  0  0  0  0  0  0  0  0  0  0  0
  -21.0190  -44.1810  -18.2700 C   0  0  1  0  0  0  0  0  0  0  0  0
  -20.4710  -42.8780  -17.6970 C   0  0  0  0  0  0  0  0  0  0  0  0
  -20.1240  -44.7580  -19.3280 C   0  0  0  0  0  0  0  0  0  0  0  0
  -19.8410  -44.3300  -20.5900 C   0  0  0  0  0  0  0  0  0  0  0  0
  -20.3800  -43.1060  -21.2510 C   0  0  0  0  0  0  0  0  0  0  0  0
  -18.9590  -45.1180  -21.2970 N   0  0  0  0  0  0  0  0  0  0  0  0
  -18.5660  -46.1410  -20.5930 C   0  0  0  0  0  0  0  0  0  0  0  0
  -19.2480  -46.2240  -19.0020 S   0  0  0  0  0  0  0  0  0  0  0  0
  -17.6070  -47.1680  -21.0840 C   0  0  0  0  0  0  0  0  0  0  0  0
  5  3  1  0
  4  3  1  0
  3  2  1  0
  2  1  2  0
  6  2  1  0
  7  6  1  0
  7  8  1  1
  9  7  1  0
  9 14  1  0
 14 13  1  0
 15 13  1  0
 13 12  2  0
 12 10  1  0
 10  9  2  0
 11 10  1  0
M  END
>  <id>  (1) 
28

>  <inchikey>  (1) 
ZECWVBZTKUPZEE-QMMMGPOBSA-N

>  <alias>  (1) 
d0264a

>  <smiles>  (1) 
Cc1nc(C)c([C@H](C)NC(=O)C(C)C)s1

>  <path>  (1) 
/opt/xchem-fragalysis-2/maxwin/BulkDock/TARGETS/Flavi_NS5_RdRp/aligned_files/d0264a/d0264a.pdb

>  <distance_score>  (1) 
None

>  <energy_score>  (1) 
None

>  <compound>  (1) 
ZECWVBZTKUPZEE-UHFFFAOYSA-N

>  <compound_id>  (1) 
24

>  <target>  (1) 
Flavi_NS5_RdRp

$$$$
d0472a
     RDKit          3D

 12 13  0  0  0  0  0  0  0  0999 V2000
  -15.7750  -43.6370  -22.5880 N   0  0  0  0  0  0  0  0  0  0  0  0
  -15.1370  -44.0180  -21.4420 C   0  0  0  0  0  0  0  0  0  0  0  0
  -15.5660  -45.1350  -20.6910 C   0  0  0  0  0  0  0  0  0  0  0  0
  -15.0140  -45.4870  -19.5210 N   0  0  0  0  0  0  0  0  0  0  0  0
  -13.9920  -44.7430  -19.0650 C   0  0  0  0  0  0  0  0  0  0  0  0
  -13.4830  -43.6510  -19.7350 C   0  0  0  0  0  0  0  0  0  0  0  0
  -14.0650  -43.2880  -20.9320 C   0  0  0  0  0  0  0  0  0  0  0  0
  -16.5820  -46.0170  -21.1430 N   0  0  0  0  0  0  0  0  0  0  0  0
  -17.5610  -45.7280  -22.0730 C   0  0  0  0  0  0  0  0  0  0  0  0
  -18.3330  -46.8380  -22.2340 C   0  0  0  0  0  0  0  0  0  0  0  0
  -17.8230  -47.8430  -21.3830 C   0  0  0  0  0  0  0  0  0  0  0  0
  -16.7520  -47.3220  -20.7230 C   0  0  0  0  0  0  0  0  0  0  0  0
  2  1  1  0
  2  7  2  0
  7  6  1  0
  6  5  2  0
  5  4  1  0
  4  3  2  0
  3  2  1  0
  8  3  1  0
  8 12  1  0
 12 11  2  0
 11 10  1  0
 10  9  2  0
  9  8  1  0
M  END
>  <id>  (2) 
42

>  <inchikey>  (2) 
QCTDPVKLZRURRV-UHFFFAOYSA-N

>  <alias>  (2) 
d0472a

>  <smiles>  (2) 
Nc1cccnc1-n1cccc1

>  <path>  (2) 
/opt/xchem-fragalysis-2/maxwin/BulkDock/TARGETS/Flavi_NS5_RdRp/aligned_files/d0472a/d0472a.pdb

>  <distance_score>  (2) 
None

>  <energy_score>  (2) 
None

>  <compound>  (2) 
QCTDPVKLZRURRV-UHFFFAOYSA-N

>  <compound_id>  (2) 
35

>  <target>  (2) 
Flavi_NS5_RdRp

$$$$
