d0160a
     RDKit          3D

 12 13  0  0  0  0  0  0  0  0999 V2000
  -14.8680  -42.8470  -22.4170 C   0  0  0  0  0  0  0  0  0  0  0  0
  -14.3590  -41.4720  -22.7610 C   0  0  0  0  0  0  0  0  0  0  0  0
  -14.6310  -40.6870  -23.8930 C   0  0  0  0  0  0  0  0  0  0  0  0
  -13.9280  -39.5420  -23.7350 N   0  0  0  0  0  0  0  0  0  0  0  0
  -13.2130  -39.5230  -22.5740 N   0  0  0  0  0  0  0  0  0  0  0  0
  -13.4780  -40.6900  -21.9930 C   0  0  0  0  0  0  0  0  0  0  0  0
  -15.4880  -40.9120  -25.0760 C   0  0  0  0  0  0  0  0  0  0  0  0
  -16.4450  -41.9230  -25.0890 C   0  0  0  0  0  0  0  0  0  0  0  0
  -17.2400  -42.0720  -26.2090 C   0  0  0  0  0  0  0  0  0  0  0  0
  -17.1550  -41.2910  -27.2920 N   0  0  0  0  0  0  0  0  0  0  0  0
  -16.2280  -40.3270  -27.2660 C   0  0  0  0  0  0  0  0  0  0  0  0
  -15.3790  -40.1030  -26.1990 C   0  0  0  0  0  0  0  0  0  0  0  0
  2  1  1  0
  2  6  1  0
  6  5  2  0
  5  4  1  0
  4  3  1  0
  3  2  2  0
  7  3  1  0
  7 12  2  0
 12 11  1  0
 11 10  2  0
 10  9  1  0
  9  8  2  0
  8  7  1  0
M  END
>  <id>  (1) 
12

>  <inchikey>  (1) 
DIJNPLGAABOOQW-UHFFFAOYSA-N

>  <alias>  (1) 
d0160a

>  <smiles>  (1) 
Cc1cn[nH]c1-c1ccncc1

>  <path>  (1) 
/opt/xchem-fragalysis-2/maxwin/BulkDock/TARGETS/Flavi_NS5_RdRp/aligned_files/d0160a/d0160a.pdb

>  <distance_score>  (1) 
None

>  <energy_score>  (1) 
None

>  <compound>  (1) 
DIJNPLGAABOOQW-UHFFFAOYSA-N

>  <compound_id>  (1) 
10

>  <target>  (1) 
Flavi_NS5_RdRp

$$$$
5i3p-a
     RDKit          3D

 33 35  0  0  0  0  0  0  0  0999 V2000
  -15.4970  -43.7610  -21.5670 C   0  0  0  0  0  0  0  0  0  0  0  0
  -14.5890  -42.9950  -20.8480 C   0  0  0  0  0  0  0  0  0  0  0  0
  -14.5950  -43.0200  -19.4630 C   0  0  0  0  0  0  0  0  0  0  0  0
  -13.7000  -42.3430  -18.6770 O   0  0  0  0  0  0  0  0  0  0  0  0
  -17.0530  -44.1860  -14.6170 O   0  0  0  0  0  0  0  0  0  0  0  0
  -14.1550  -38.9170  -16.1040 O   0  0  0  0  0  0  0  0  0  0  0  0
  -13.8840  -40.1190  -14.0760 C   0  0  0  0  0  0  0  0  0  0  0  0
  -14.2390  -41.1750  -13.2430 C   0  0  0  0  0  0  0  0  0  0  0  0
  -15.2710  -42.0430  -13.5930 C   0  0  0  0  0  0  0  0  0  0  0  0
  -16.4450  -44.5480  -19.5110 C   0  0  0  0  0  0  0  0  0  0  0  0
  -16.4420  -44.5630  -20.9040 C   0  0  0  0  0  0  0  0  0  0  0  0
  -17.4200  -45.4210  -21.5990 C   0  0  0  0  0  0  0  0  0  0  0  0
  -17.9620  -46.6110  -21.1720 C   0  0  0  0  0  0  0  0  0  0  0  0
  -18.8820  -47.1560  -22.0690 C   0  0  0  0  0  0  0  0  0  0  0  0
  -19.0440  -46.4060  -23.1910 C   0  0  0  0  0  0  0  0  0  0  0  0
  -19.8060  -46.6590  -24.3610 C   0  0  0  0  0  0  0  0  0  0  0  0
  -20.3640  -46.7470  -25.4100 C   0  0  0  0  0  0  0  0  0  0  0  0
  -20.9730  -46.8050  -26.7390 C   0  0  0  0  0  0  0  0  0  0  0  0
  -14.9140  -44.2600  -16.5240 O   0  0  0  0  0  0  0  0  0  0  0  0
  -15.7460  -43.7990  -17.3020 C   0  0  0  0  0  0  0  0  0  0  0  0
  -16.9230  -43.2280  -16.8550 N   0  0  0  0  0  0  0  0  0  0  0  0
  -17.2310  -42.9340  -15.2860 S   0  0  0  0  0  0  0  0  0  0  0  0
  -18.4860  -42.2470  -15.1990 O   0  0  0  0  0  0  0  0  0  0  0  0
  -15.9590  -41.8270  -14.7790 C   0  0  0  0  0  0  0  0  0  0  0  0
  -14.5760  -39.9260  -15.2660 C   0  0  0  0  0  0  0  0  0  0  0  0
  -14.8680  -38.6970  -17.3270 C   0  0  0  0  0  0  0  0  0  0  0  0
  -15.6240  -40.7660  -15.6090 C   0  0  0  0  0  0  0  0  0  0  0  0
  -15.5390  -43.7830  -18.7770 C   0  0  0  0  0  0  0  0  0  0  0  0
  -12.8060  -41.4270  -19.3080 C   0  0  0  0  0  0  0  0  0  0  0  0
  -15.5260  -43.8010  -22.9370 O   0  0  0  0  0  0  0  0  0  0  0  0
  -14.5990  -42.9860  -23.6530 C   0  0  0  0  0  0  0  0  0  0  0  0
  -18.0730  -44.9810  -23.1380 S   0  0  0  0  0  0  0  0  0  0  0  0
  -21.8360  -45.7140  -26.9630 O   0  0  0  0  0  0  0  0  0  0  0  0
 18 33  1  0
 18 17  1  0
 17 16  3  0
 16 15  1  0
 15 14  2  0
 15 32  1  0
 14 13  1  0
 13 12  2  0
 32 12  1  0
 12 11  1  0
 11 10  1  0
 11  1  2  0
 30  1  1  0
 30 31  1  0
 10 28  2  0
  1  2  1  0
 28 20  1  0
 28  3  1  0
  2  3  2  0
 21 20  1  0
 21 22  1  0
 20 19  2  0
  5 22  2  0
 23 22  2  0
  3  4  1  0
 22 24  1  0
  4 29  1  0
 24 27  2  0
 24  9  1  0
 27 25  1  0
  9  8  2  0
 26  6  1  0
 25  6  1  0
 25  7  2  0
  8  7  1  0
M  END
>  <id>  (2) 
212

>  <inchikey>  (2) 
GFHHFWCGCHIDBF-UHFFFAOYSA-N

>  <alias>  (2) 
5i3p-a

>  <smiles>  (2) 
COc1cccc(S(=O)(=O)NC(=O)c2cc(-c3ccc(C#CCO)s3)c(OC)cc2OC)c1

>  <path>  (2) 
/opt/xchem-fragalysis-2/maxwin/BulkDock/TARGETS/Flavi_NS5_RdRp/aligned_files/5i3p-a/5i3p-a.pdb

>  <distance_score>  (2) 
None

>  <energy_score>  (2) 
None

>  <compound>  (2) 
GFHHFWCGCHIDBF-UHFFFAOYSA-N

>  <compound_id>  (2) 
149

>  <target>  (2) 
Flavi_NS5_RdRp

$$$$
5k5m-a
     RDKit          3D

 33 35  0  0  0  0  0  0  0  0999 V2000
  -14.8580  -43.9260  -21.4080 C   0  0  0  0  0  0  0  0  0  0  0  0
  -13.9290  -43.2280  -20.6590 C   0  0  0  0  0  0  0  0  0  0  0  0
  -13.9520  -43.2730  -19.2780 C   0  0  0  0  0  0  0  0  0  0  0  0
  -13.0590  -42.6100  -18.4790 O   0  0  0  0  0  0  0  0  0  0  0  0
  -17.7140  -42.2960  -15.0130 O   0  0  0  0  0  0  0  0  0  0  0  0
  -12.8650  -39.4700  -15.4270 O   0  0  0  0  0  0  0  0  0  0  0  0
  -13.0470  -40.6900  -13.5060 C   0  0  0  0  0  0  0  0  0  0  0  0
  -13.6190  -41.6720  -12.7070 C   0  0  0  0  0  0  0  0  0  0  0  0
  -14.7000  -42.4170  -13.1580 C   0  0  0  0  0  0  0  0  0  0  0  0
  -15.8630  -44.7240  -19.3760 C   0  0  0  0  0  0  0  0  0  0  0  0
  -15.8550  -44.6900  -20.7770 C   0  0  0  0  0  0  0  0  0  0  0  0
  -16.8860  -45.4380  -21.5260 C   0  0  0  0  0  0  0  0  0  0  0  0
  -17.4820  -46.6370  -21.1590 C   0  0  0  0  0  0  0  0  0  0  0  0
  -18.3590  -47.1370  -22.1260 C   0  0  0  0  0  0  0  0  0  0  0  0
  -18.4690  -46.3200  -23.2350 C   0  0  0  0  0  0  0  0  0  0  0  0
  -19.2110  -46.5040  -24.4290 C   0  0  0  0  0  0  0  0  0  0  0  0
  -19.7910  -46.6140  -25.4640 C   0  0  0  0  0  0  0  0  0  0  0  0
  -20.5840  -46.8720  -26.6660 C   0  0  0  0  0  0  0  0  0  0  0  0
  -14.2290  -44.4290  -16.3550 O   0  0  0  0  0  0  0  0  0  0  0  0
  -15.1100  -44.0300  -17.1160 C   0  0  0  0  0  0  0  0  0  0  0  0
  -16.2460  -43.4040  -16.6350 N   0  0  0  0  0  0  0  0  0  0  0  0
  -16.5520  -43.1300  -15.0390 S   0  0  0  0  0  0  0  0  0  0  0  0
  -16.5620  -44.3840  -14.3500 O   0  0  0  0  0  0  0  0  0  0  0  0
  -15.1980  -42.1770  -14.4300 C   0  0  0  0  0  0  0  0  0  0  0  0
  -13.5670  -40.4490  -14.7680 C   0  0  0  0  0  0  0  0  0  0  0  0
  -13.2920  -39.0810  -16.7360 C   0  0  0  0  0  0  0  0  0  0  0  0
  -14.6500  -41.1880  -15.2310 C   0  0  0  0  0  0  0  0  0  0  0  0
  -14.9290  -44.0160  -18.6070 C   0  0  0  0  0  0  0  0  0  0  0  0
  -12.1900  -41.6430  -19.0820 C   0  0  0  0  0  0  0  0  0  0  0  0
  -14.8550  -43.9500  -22.7790 O   0  0  0  0  0  0  0  0  0  0  0  0
  -13.8140  -43.2580  -23.4550 C   0  0  0  0  0  0  0  0  0  0  0  0
  -17.4720  -44.9230  -23.0810 S   0  0  0  0  0  0  0  0  0  0  0  0
  -21.7170  -46.0320  -26.7280 O   0  0  0  0  0  0  0  0  0  0  0  0
 18 33  1  0
 18 17  1  0
 17 16  3  0
 16 15  1  0
 15 14  2  0
 15 32  1  0
 14 13  1  0
 13 12  2  0
 32 12  1  0
 12 11  1  0
 11 10  1  0
 11  1  2  0
 30  1  1  0
 30 31  1  0
 10 28  2  0
  1  2  1  0
 28 20  1  0
 28  3  1  0
  2  3  2  0
 21 20  1  0
 21 22  1  0
 20 19  2  0
  5 22  2  0
 23 22  2  0
  3  4  1  0
 22 24  1  0
  4 29  1  0
 24 27  2  0
 24  9  1  0
 27 25  1  0
  9  8  2  0
 26  6  1  0
 25  6  1  0
 25  7  2  0
  8  7  1  0
M  END
>  <id>  (3) 
225

>  <inchikey>  (3) 
GFHHFWCGCHIDBF-UHFFFAOYSA-N

>  <alias>  (3) 
5k5m-a

>  <smiles>  (3) 
COc1cccc(S(=O)(=O)NC(=O)c2cc(-c3ccc(C#CCO)s3)c(OC)cc2OC)c1

>  <path>  (3) 
/opt/xchem-fragalysis-2/maxwin/BulkDock/TARGETS/Flavi_NS5_RdRp/aligned_files/5k5m-a/5k5m-a.pdb

>  <distance_score>  (3) 
None

>  <energy_score>  (3) 
None

>  <compound>  (3) 
GFHHFWCGCHIDBF-UHFFFAOYSA-N

>  <compound_id>  (3) 
149

>  <target>  (3) 
Flavi_NS5_RdRp

$$$$
