d0174a
     RDKit          3D

 16 17  0  0  0  0  0  0  0  0999 V2000
  -14.5260  -69.9790  -19.0550 O   0  0  0  0  0  0  0  0  0  0  0  0
  -13.8380  -69.6370  -20.2620 S   0  0  0  0  0  0  0  0  0  0  0  0
  -13.0170  -68.4660  -20.2910 O   0  0  0  0  0  0  0  0  0  0  0  0
  -15.0450  -69.4890  -21.5600 C   0  0  0  0  0  0  0  0  0  0  0  0
  -14.4150  -69.4670  -22.9280 C   0  0  0  0  0  0  0  0  0  0  0  0
  -12.8600  -70.9160  -20.6410 N   0  0  0  0  0  0  0  0  0  0  0  0
  -11.5650  -70.7230  -21.3130 C   0  0  0  0  0  0  0  0  0  0  0  0
  -10.3650  -70.9940  -20.4370 C   0  0  0  0  0  0  0  0  0  0  0  0
   -9.0840  -70.7120  -20.9060 C   0  0  0  0  0  0  0  0  0  0  0  0
   -8.0010  -70.9900  -20.0990 C   0  0  0  0  0  0  0  0  0  0  0  0
   -6.6650  -70.7580  -20.3430 O   0  0  0  0  0  0  0  0  0  0  0  0
   -6.0100  -71.0190  -19.0990 C   0  0  0  0  0  0  0  0  0  0  0  0
   -6.9370  -71.6950  -18.2470 O   0  0  0  0  0  0  0  0  0  0  0  0
   -8.1640  -71.5420  -18.8550 C   0  0  0  0  0  0  0  0  0  0  0  0
   -9.4190  -71.8390  -18.3620 C   0  0  0  0  0  0  0  0  0  0  0  0
  -10.5140  -71.5510  -19.1640 C   0  0  0  0  0  0  0  0  0  0  0  0
  5  4  1  0
  4  2  1  0
  3  2  2  0
  2  1  2  0
  6  2  1  0
  7  6  1  0
  8  7  1  0
  8 16  2  0
 16 15  1  0
 15 14  2  0
 14 13  1  0
 13 12  1  0
 12 11  1  0
 11 10  1  0
 14 10  1  0
 10  9  2  0
  9  8  1  0
M  END
>  <id>  (1) 
17

>  <inchikey>  (1) 
UKPLBUIFSDRLEZ-UHFFFAOYSA-N

>  <alias>  (1) 
d0174a

>  <smiles>  (1) 
CCS(=O)(=O)NCc1ccc2c(c1)OCO2

>  <path>  (1) 
/opt/xchem-fragalysis-2/maxwin/BulkDock/TARGETS/Flavi_NS5_RdRp/aligned_files/d0174a/d0174a.pdb

>  <distance_score>  (1) 
None

>  <energy_score>  (1) 
None

>  <compound>  (1) 
UKPLBUIFSDRLEZ-UHFFFAOYSA-N

>  <compound_id>  (1) 
14

>  <target>  (1) 
Flavi_NS5_RdRp

$$$$
d0210a
     RDKit          3D

 16 17  0  0  0  0  0  0  0  0999 V2000
    0.0890  -67.3610  -21.0900 O   0  0  0  0  0  0  0  0  0  0  0  0
   -0.0930  -68.7760  -21.0120 S   0  0  0  0  0  0  0  0  0  0  0  0
    0.1950  -69.5910  -22.1500 O   0  0  0  0  0  0  0  0  0  0  0  0
   -1.7560  -69.0840  -20.5300 C   0  0  0  0  0  0  0  0  0  0  0  0
   -2.3000  -70.3440  -20.7160 C   0  0  0  0  0  0  0  0  0  0  0  0
   -3.5950  -70.5980  -20.3030 C   0  0  0  0  0  0  0  0  0  0  0  0
   -2.5010  -68.0690  -19.9510 C   0  0  0  0  0  0  0  0  0  0  0  0
   -3.7960  -68.3240  -19.5350 C   0  0  0  0  0  0  0  0  0  0  0  0
   -4.3040  -69.5830  -19.7150 C   0  0  0  0  0  0  0  0  0  0  0  0
   -5.5590  -69.8480  -19.2590 F   0  0  0  0  0  0  0  0  0  0  0  0
    0.8700  -69.3080  -19.8010 N   0  0  0  0  0  0  0  0  0  0  0  0
    1.5130  -68.2860  -18.9520 C   0  0  0  0  0  0  0  0  0  0  0  0
    2.0570  -68.9380  -17.7000 C   0  0  0  0  0  0  0  0  0  0  0  0
    2.9890  -70.0010  -18.0440 N   0  0  0  0  0  0  0  0  0  0  0  0
    2.3120  -71.0220  -18.8400 C   0  0  0  0  0  0  0  0  0  0  0  0
    1.7780  -70.4260  -20.1220 C   0  0  0  0  0  0  0  0  0  0  0  0
 10  9  1  0
  9  6  1  0
  6  5  2  0
  5  4  1  0
  7  4  2  0
  8  7  1  0
  9  8  2  0
  4  2  1  0
  3  2  2  0
  2  1  2  0
 11  2  1  0
 11 16  1  0
 16 15  1  0
 15 14  1  0
 14 13  1  0
 13 12  1  0
 12 11  1  0
M  END
>  <id>  (2) 
21

>  <inchikey>  (2) 
KKDHOKJGLSITHN-UHFFFAOYSA-N

>  <alias>  (2) 
d0210a

>  <smiles>  (2) 
O=S(=O)(c1ccc(F)cc1)N1CCNCC1

>  <path>  (2) 
/opt/xchem-fragalysis-2/maxwin/BulkDock/TARGETS/Flavi_NS5_RdRp/aligned_files/d0210a/d0210a.pdb

>  <distance_score>  (2) 
None

>  <energy_score>  (2) 
None

>  <compound>  (2) 
KKDHOKJGLSITHN-UHFFFAOYSA-N

>  <compound_id>  (2) 
17

>  <target>  (2) 
Flavi_NS5_RdRp

$$$$
