5hmy-a
     RDKit          3D

 23 24  0  0  0  0  0  0  0  0999 V2000
  -13.6900  -42.0740  -20.9510 C   0  0  0  0  0  0  0  0  0  0  0  0
  -14.6530  -43.0350  -20.2960 C   0  0  0  0  0  0  0  0  0  0  0  0
  -14.5710  -43.2350  -18.9200 C   0  0  0  0  0  0  0  0  0  0  0  0
  -15.1740  -40.2190  -21.2790 O   0  0  0  0  0  0  0  0  0  0  0  0
  -16.2150  -43.7690  -14.7030 O   0  0  0  0  0  0  0  0  0  0  0  0
  -17.0570  -42.7860  -16.4280 O   0  0  0  0  0  0  0  0  0  0  0  0
  -18.7640  -47.2690  -22.0220 C   0  0  0  0  0  0  0  0  0  0  0  0
  -18.9910  -46.2940  -22.9790 C   0  0  0  0  0  0  0  0  0  0  0  0
  -19.6580  -46.4820  -24.1200 C   0  0  0  0  0  0  0  0  0  0  0  0
  -20.1480  -46.5920  -25.1880 C   0  0  0  0  0  0  0  0  0  0  0  0
  -20.6510  -46.6680  -26.5650 C   0  0  0  0  0  0  0  0  0  0  0  0
  -15.5780  -43.7690  -21.0610 C   0  0  0  0  0  0  0  0  0  0  0  0
  -13.2980  -39.8380  -20.2840 O   0  0  0  0  0  0  0  0  0  0  0  0
  -14.0910  -40.6190  -20.8240 C   0  0  0  0  0  0  0  0  0  0  0  0
  -16.4850  -44.6440  -20.4290 C   0  0  0  0  0  0  0  0  0  0  0  0
  -16.3730  -44.8490  -19.0450 C   0  0  0  0  0  0  0  0  0  0  0  0
  -15.4460  -44.1200  -18.2860 C   0  0  0  0  0  0  0  0  0  0  0  0
  -15.2920  -44.3830  -16.7970 C   0  0  0  0  0  0  0  0  0  0  0  0
  -16.2540  -43.5930  -15.9320 C   0  0  0  0  0  0  0  0  0  0  0  0
  -17.4520  -45.4860  -21.2070 C   0  0  0  0  0  0  0  0  0  0  0  0
  -17.9160  -46.7970  -21.0040 C   0  0  0  0  0  0  0  0  0  0  0  0
  -18.0680  -44.8760  -22.7170 S   0  0  0  0  0  0  0  0  0  0  0  0
  -22.0000  -46.2280  -26.6080 O   0  0  0  0  0  0  0  0  0  0  0  0
 23 11  1  0
 11 10  1  0
 10  9  3  0
  9  8  1  0
  7  8  2  0
  7 21  1  0
  8 22  1  0
 21 20  2  0
 22 20  1  0
 20 15  1  0
 15 16  2  0
 15 12  1  0
 16 17  1  0
 12  2  2  0
 17 18  1  0
 17  3  2  0
  2  3  1  0
  2  1  1  0
 18 19  1  0
  6 19  2  0
 19  5  1  0
  1 14  1  0
  4 14  2  0
 14 13  1  0
M  END
>  <id>  (1) 
216

>  <inchikey>  (1) 
GUHLJLFVRKYNRL-UHFFFAOYSA-N

>  <alias>  (1) 
5hmy-a

>  <smiles>  (1) 
O=C(O)Cc1cc(CC(=O)O)cc(-c2ccc(C#CCO)s2)c1

>  <path>  (1) 
/opt/xchem-fragalysis-2/maxwin/BulkDock/TARGETS/Flavi_NS5_RdRp/aligned_files/5hmy-a/5hmy-a.pdb

>  <distance_score>  (1) 
None

>  <energy_score>  (1) 
None

>  <compound>  (1) 
GUHLJLFVRKYNRL-UHFFFAOYSA-N

>  <compound_id>  (1) 
153

>  <target>  (1) 
Flavi_NS5_RdRp

$$$$
5k5m-a
     RDKit          3D

 33 35  0  0  0  0  0  0  0  0999 V2000
  -14.8580  -43.9260  -21.4080 C   0  0  0  0  0  0  0  0  0  0  0  0
  -13.9290  -43.2280  -20.6590 C   0  0  0  0  0  0  0  0  0  0  0  0
  -13.9520  -43.2730  -19.2780 C   0  0  0  0  0  0  0  0  0  0  0  0
  -13.0590  -42.6100  -18.4790 O   0  0  0  0  0  0  0  0  0  0  0  0
  -17.7140  -42.2960  -15.0130 O   0  0  0  0  0  0  0  0  0  0  0  0
  -12.8650  -39.4700  -15.4270 O   0  0  0  0  0  0  0  0  0  0  0  0
  -13.0470  -40.6900  -13.5060 C   0  0  0  0  0  0  0  0  0  0  0  0
  -13.6190  -41.6720  -12.7070 C   0  0  0  0  0  0  0  0  0  0  0  0
  -14.7000  -42.4170  -13.1580 C   0  0  0  0  0  0  0  0  0  0  0  0
  -15.8630  -44.7240  -19.3760 C   0  0  0  0  0  0  0  0  0  0  0  0
  -15.8550  -44.6900  -20.7770 C   0  0  0  0  0  0  0  0  0  0  0  0
  -16.8860  -45.4380  -21.5260 C   0  0  0  0  0  0  0  0  0  0  0  0
  -17.4820  -46.6370  -21.1590 C   0  0  0  0  0  0  0  0  0  0  0  0
  -18.3590  -47.1370  -22.1260 C   0  0  0  0  0  0  0  0  0  0  0  0
  -18.4690  -46.3200  -23.2350 C   0  0  0  0  0  0  0  0  0  0  0  0
  -19.2110  -46.5040  -24.4290 C   0  0  0  0  0  0  0  0  0  0  0  0
  -19.7910  -46.6140  -25.4640 C   0  0  0  0  0  0  0  0  0  0  0  0
  -20.5840  -46.8720  -26.6660 C   0  0  0  0  0  0  0  0  0  0  0  0
  -14.2290  -44.4290  -16.3550 O   0  0  0  0  0  0  0  0  0  0  0  0
  -15.1100  -44.0300  -17.1160 C   0  0  0  0  0  0  0  0  0  0  0  0
  -16.2460  -43.4040  -16.6350 N   0  0  0  0  0  0  0  0  0  0  0  0
  -16.5520  -43.1300  -15.0390 S   0  0  0  0  0  0  0  0  0  0  0  0
  -16.5620  -44.3840  -14.3500 O   0  0  0  0  0  0  0  0  0  0  0  0
  -15.1980  -42.1770  -14.4300 C   0  0  0  0  0  0  0  0  0  0  0  0
  -13.5670  -40.4490  -14.7680 C   0  0  0  0  0  0  0  0  0  0  0  0
  -13.2920  -39.0810  -16.7360 C   0  0  0  0  0  0  0  0  0  0  0  0
  -14.6500  -41.1880  -15.2310 C   0  0  0  0  0  0  0  0  0  0  0  0
  -14.9290  -44.0160  -18.6070 C   0  0  0  0  0  0  0  0  0  0  0  0
  -12.1900  -41.6430  -19.0820 C   0  0  0  0  0  0  0  0  0  0  0  0
  -14.8550  -43.9500  -22.7790 O   0  0  0  0  0  0  0  0  0  0  0  0
  -13.8140  -43.2580  -23.4550 C   0  0  0  0  0  0  0  0  0  0  0  0
  -17.4720  -44.9230  -23.0810 S   0  0  0  0  0  0  0  0  0  0  0  0
  -21.7170  -46.0320  -26.7280 O   0  0  0  0  0  0  0  0  0  0  0  0
 18 33  1  0
 18 17  1  0
 17 16  3  0
 16 15  1  0
 15 14  2  0
 15 32  1  0
 14 13  1  0
 13 12  2  0
 32 12  1  0
 12 11  1  0
 11 10  1  0
 11  1  2  0
 30  1  1  0
 30 31  1  0
 10 28  2  0
  1  2  1  0
 28 20  1  0
 28  3  1  0
  2  3  2  0
 21 20  1  0
 21 22  1  0
 20 19  2  0
  5 22  2  0
 23 22  2  0
  3  4  1  0
 22 24  1  0
  4 29  1  0
 24 27  2  0
 24  9  1  0
 27 25  1  0
  9  8  2  0
 26  6  1  0
 25  6  1  0
 25  7  2  0
  8  7  1  0
M  END
>  <id>  (2) 
225

>  <inchikey>  (2) 
GFHHFWCGCHIDBF-UHFFFAOYSA-N

>  <alias>  (2) 
5k5m-a

>  <smiles>  (2) 
COc1cccc(S(=O)(=O)NC(=O)c2cc(-c3ccc(C#CCO)s3)c(OC)cc2OC)c1

>  <path>  (2) 
/opt/xchem-fragalysis-2/maxwin/BulkDock/TARGETS/Flavi_NS5_RdRp/aligned_files/5k5m-a/5k5m-a.pdb

>  <distance_score>  (2) 
None

>  <energy_score>  (2) 
None

>  <compound>  (2) 
GFHHFWCGCHIDBF-UHFFFAOYSA-N

>  <compound_id>  (2) 
149

>  <target>  (2) 
Flavi_NS5_RdRp

$$$$
