5hmz-a
     RDKit          3D

 25 26  0  0  0  0  0  0  0  0999 V2000
  -16.3850  -44.4800  -19.4840 C   0  0  0  0  0  0  0  0  0  0  0  0
  -15.4090  -43.7600  -18.7960 C   0  0  0  0  0  0  0  0  0  0  0  0
  -14.4300  -43.0430  -19.5080 C   0  0  0  0  0  0  0  0  0  0  0  0
  -17.4350  -45.3200  -21.5580 C   0  0  0  0  0  0  0  0  0  0  0  0
  -19.0280  -46.3480  -23.1160 C   0  0  0  0  0  0  0  0  0  0  0  0
  -18.8540  -47.0840  -22.0150 C   0  0  0  0  0  0  0  0  0  0  0  0
  -17.9480  -46.5100  -21.1130 C   0  0  0  0  0  0  0  0  0  0  0  0
  -19.8180  -46.5800  -24.2700 C   0  0  0  0  0  0  0  0  0  0  0  0
  -15.7600  -42.1920  -14.5030 C   0  0  0  0  0  0  0  0  0  0  0  0
  -20.3920  -46.6600  -25.3100 C   0  0  0  0  0  0  0  0  0  0  0  0
  -20.9050  -46.7000  -26.6790 C   0  0  0  0  0  0  0  0  0  0  0  0
  -14.4930  -43.0500  -20.9000 C   0  0  0  0  0  0  0  0  0  0  0  0
  -15.4710  -43.7740  -21.5760 C   0  0  0  0  0  0  0  0  0  0  0  0
  -16.4260  -44.5080  -20.8730 C   0  0  0  0  0  0  0  0  0  0  0  0
  -15.5340  -43.7620  -17.3110 C   0  0  0  0  0  0  0  0  0  0  0  0
  -13.3210  -42.2770  -18.8210 C   0  0  0  0  0  0  0  0  0  0  0  0
  -15.4260  -43.7880  -22.9480 O   0  0  0  0  0  0  0  0  0  0  0  0
  -14.4150  -43.0450  -23.6430 C   0  0  0  0  0  0  0  0  0  0  0  0
  -14.6650  -44.2930  -16.6210 O   0  0  0  0  0  0  0  0  0  0  0  0
  -16.6530  -43.1520  -16.7890 N   0  0  0  0  0  0  0  0  0  0  0  0
  -18.0850  -44.9220  -23.0680 S   0  0  0  0  0  0  0  0  0  0  0  0
  -17.0310  -43.1020  -15.2300 S   0  0  0  0  0  0  0  0  0  0  0  0
  -16.9840  -44.4180  -14.7500 O   0  0  0  0  0  0  0  0  0  0  0  0
  -18.2330  -42.3530  -15.1500 O   0  0  0  0  0  0  0  0  0  0  0  0
  -22.1670  -46.0800  -26.7690 O   0  0  0  0  0  0  0  0  0  0  0  0
 25 11  1  0
 11 10  1  0
 10  8  3  0
  8  5  1  0
  5  6  2  0
  5 21  1  0
  6  7  1  0
  7  4  2  0
 21  4  1  0
  4 14  1  0
 14  1  2  0
 14 13  1  0
 17 13  1  0
 17 18  1  0
  1  2  1  0
 13 12  2  0
  2 15  1  0
  2  3  2  0
 12  3  1  0
 23 22  2  0
 20 15  1  0
 20 22  1  0
 15 19  2  0
 24 22  2  0
  3 16  1  0
 22  9  1  0
M  END
>  <id>  (1) 
227

>  <inchikey>  (1) 
BQEHLOAHCIMXML-UHFFFAOYSA-N

>  <alias>  (1) 
5hmz-a

>  <smiles>  (1) 
COc1cc(C)c(C(=O)NS(C)(=O)=O)cc1-c1ccc(C#CCO)s1

>  <path>  (1) 
/opt/xchem-fragalysis-2/maxwin/BulkDock/TARGETS/Flavi_NS5_RdRp/aligned_files/5hmz-a/5hmz-a.pdb

>  <distance_score>  (1) 
None

>  <energy_score>  (1) 
None

>  <compound>  (1) 
BQEHLOAHCIMXML-UHFFFAOYSA-N

>  <compound_id>  (1) 
160

>  <target>  (1) 
Flavi_NS5_RdRp

$$$$
5f3z-a
     RDKit          3D

 17 18  0  0  0  0  0  0  0  0999 V2000
  -15.2140  -44.1960  -17.2050 C   0  0  0  0  0  0  0  0  0  0  0  0
  -15.3060  -44.0670  -18.7190 C   0  0  0  0  0  0  0  0  0  0  0  0
  -14.3780  -43.2890  -19.4240 C   0  0  0  0  0  0  0  0  0  0  0  0
  -15.4940  -43.7830  -22.9020 O   0  0  0  0  0  0  0  0  0  0  0  0
  -16.7770  -42.4210  -17.0360 O   0  0  0  0  0  0  0  0  0  0  0  0
  -19.2550  -46.2000  -23.1400 C   0  0  0  0  0  0  0  0  0  0  0  0
  -16.3270  -44.7300  -19.3850 C   0  0  0  0  0  0  0  0  0  0  0  0
  -16.7530  -43.9010  -15.4240 O   0  0  0  0  0  0  0  0  0  0  0  0
  -16.3290  -43.4590  -16.5100 C   0  0  0  0  0  0  0  0  0  0  0  0
  -14.4180  -43.1820  -20.8110 C   0  0  0  0  0  0  0  0  0  0  0  0
  -15.4370  -43.8370  -21.5280 C   0  0  0  0  0  0  0  0  0  0  0  0
  -14.5170  -43.0760  -23.6690 C   0  0  0  0  0  0  0  0  0  0  0  0
  -16.4280  -44.6560  -20.7710 C   0  0  0  0  0  0  0  0  0  0  0  0
  -17.5040  -45.4480  -21.4270 C   0  0  0  0  0  0  0  0  0  0  0  0
  -18.1160  -46.6480  -21.0950 C   0  0  0  0  0  0  0  0  0  0  0  0
  -19.0830  -47.0270  -22.0370 C   0  0  0  0  0  0  0  0  0  0  0  0
  -18.1620  -44.8750  -22.9160 S   0  0  0  0  0  0  0  0  0  0  0  0
  6 16  2  0
  6 17  1  0
 16 15  1  0
 15 14  2  0
 17 14  1  0
 14 13  1  0
 13  7  1  0
 13 11  2  0
  4 11  1  0
  4 12  1  0
  7  2  2  0
 11 10  1  0
  2  1  1  0
  2  3  1  0
 10  3  2  0
  8  9  2  0
  1  9  1  0
  9  5  1  0
M  END
>  <id>  (2) 
231

>  <inchikey>  (2) 
HCAVDRSGOUZCSD-UHFFFAOYSA-N

>  <alias>  (2) 
5f3z-a

>  <smiles>  (2) 
COc1ccc(CC(=O)O)cc1-c1cccs1

>  <path>  (2) 
/opt/xchem-fragalysis-2/maxwin/BulkDock/TARGETS/Flavi_NS5_RdRp/aligned_files/5f3z-a/5f3z-a.pdb

>  <distance_score>  (2) 
None

>  <energy_score>  (2) 
None

>  <compound>  (2) 
HCAVDRSGOUZCSD-UHFFFAOYSA-N

>  <compound_id>  (2) 
152

>  <target>  (2) 
Flavi_NS5_RdRp

$$$$
