z0211a
     RDKit          3D

 14 14  0  0  0  0  0  0  0  0999 V2000
  -26.1990  -31.1140  -22.7050 O   0  0  0  0  0  0  0  0  0  0  0  0
  -25.4400  -31.2080  -21.7450 C   0  0  0  0  0  0  0  0  0  0  0  0
  -24.1640  -31.6450  -21.8600 N   0  0  0  0  0  0  0  0  0  0  0  0
  -23.5970  -32.0810  -23.1290 C   0  0  0  0  0  0  0  0  0  0  0  0
  -22.0380  -31.9840  -23.0990 C   0  0  1  0  0  0  0  0  0  0  0  0
  -21.5440  -31.8850  -21.7560 O   0  0  0  0  0  0  0  0  0  0  0  0
  -21.3930  -33.1630  -23.7940 C   0  0  0  0  0  0  0  0  0  0  0  0
  -25.7870  -30.8530  -20.4680 N   0  0  0  0  0  0  0  0  0  0  0  0
  -27.0380  -30.3840  -20.0010 C   0  0  0  0  0  0  0  0  0  0  0  0
  -27.1570  -30.1750  -18.6330 C   0  0  0  0  0  0  0  0  0  0  0  0
  -28.3980  -29.9090  -18.0800 C   0  0  0  0  0  0  0  0  0  0  0  0
  -29.5160  -29.8390  -18.8790 C   0  0  0  0  0  0  0  0  0  0  0  0
  -29.3970  -30.0030  -20.2420 C   0  0  0  0  0  0  0  0  0  0  0  0
  -28.1630  -30.2660  -20.8110 C   0  0  0  0  0  0  0  0  0  0  0  0
  5  7  1  1
  6  5  1  0
  5  4  1  0
  4  3  1  0
  3  2  1  0
  2  1  2  0
  8  2  1  0
  9  8  1  0
  9 14  2  0
 14 13  1  0
 13 12  2  0
 12 11  1  0
 11 10  2  0
 10  9  1  0
M  END
>  <id>  (1) 
102

>  <inchikey>  (1) 
XEAXHIGGZMUNSO-QMMMGPOBSA-N

>  <alias>  (1) 
z0211a

>  <smiles>  (1) 
C[C@H](O)CNC(=O)Nc1ccccc1

>  <path>  (1) 
/opt/xchem-fragalysis-2/maxwin/BulkDock/TARGETS/Flavi_NS5_RdRp/aligned_files/z0211a/z0211a.pdb

>  <distance_score>  (1) 
None

>  <energy_score>  (1) 
None

>  <compound>  (1) 
XEAXHIGGZMUNSO-UHFFFAOYSA-N

>  <compound_id>  (1) 
81

>  <target>  (1) 
Flavi_NS5_RdRp

$$$$
z0637a
     RDKit          3D

 14 15  0  0  0  0  0  0  0  0999 V2000
  -29.6920  -30.0390  -19.3490 C   0  0  0  0  0  0  0  0  0  0  0  0
  -28.5950  -29.8640  -18.3510 C   0  0  0  0  0  0  0  0  0  0  0  0
  -27.3390  -29.9320  -18.8240 N   0  0  0  0  0  0  0  0  0  0  0  0
  -26.3240  -29.9050  -17.9430 C   0  0  0  0  0  0  0  0  0  0  0  0
  -26.5060  -29.7820  -16.5610 C   0  0  0  0  0  0  0  0  0  0  0  0
  -27.8040  -29.6930  -16.0930 C   0  0  0  0  0  0  0  0  0  0  0  0
  -28.8610  -29.7290  -16.9880 C   0  0  0  0  0  0  0  0  0  0  0  0
  -25.0850  -30.1020  -18.4480 N   0  0  0  0  0  0  0  0  0  0  0  0
  -24.6730  -31.3810  -18.9680 C   0  0  0  0  0  0  0  0  0  0  0  0
  -23.2240  -31.6790  -18.6300 C   0  0  2  0  0  0  0  0  0  0  0  0
  -22.7780  -33.0850  -19.0340 C   0  0  0  0  0  0  0  0  0  0  0  0
  -21.9460  -33.6580  -17.9330 N   0  0  0  0  0  0  0  0  0  0  0  0
  -21.7130  -32.5810  -16.9560 C   0  0  0  0  0  0  0  0  0  0  0  0
  -22.9510  -31.6590  -17.1210 C   0  0  0  0  0  0  0  0  0  0  0  0
  2  1  1  0
  2  7  2  0
  7  6  1  0
  6  5  2  0
  5  4  1  0
  8  4  1  0
  9  8  1  0
 10  9  1  1
 10 14  1  0
 14 13  1  0
 13 12  1  0
 12 11  1  0
 11 10  1  0
  4  3  2  0
  3  2  1  0
M  END
>  <id>  (2) 
151

>  <inchikey>  (2) 
GOGVDMSQODUATE-JTQLQIEISA-N

>  <alias>  (2) 
z0637a

>  <smiles>  (2) 
Cc1cccc(NC[C@H]2CCNC2)n1

>  <path>  (2) 
/opt/xchem-fragalysis-2/maxwin/BulkDock/TARGETS/Flavi_NS5_RdRp/aligned_files/z0637a/z0637a.pdb

>  <distance_score>  (2) 
None

>  <energy_score>  (2) 
None

>  <compound>  (2) 
GOGVDMSQODUATE-UHFFFAOYSA-N

>  <compound_id>  (2) 
113

>  <target>  (2) 
Flavi_NS5_RdRp

$$$$
