z0111a
     RDKit          3D

 12 13  0  0  0  0  0  0  0  0999 V2000
  -25.3030  -31.2440  -20.6040 C   0  0  0  0  0  0  0  0  0  0  0  0
  -26.2370  -30.1530  -20.7810 N   0  0  0  0  0  0  0  0  0  0  0  0
  -27.4370  -30.1020  -20.1780 C   0  0  0  0  0  0  0  0  0  0  0  0
  -27.5310  -30.0830  -18.7350 C   0  0  0  0  0  0  0  0  0  0  0  0
  -28.8350  -30.0110  -18.1720 C   0  0  0  0  0  0  0  0  0  0  0  0
  -29.9450  -29.9760  -19.0390 C   0  0  0  0  0  0  0  0  0  0  0  0
  -29.7370  -29.9860  -20.3820 C   0  0  0  0  0  0  0  0  0  0  0  0
  -28.5250  -30.0410  -20.9520 N   0  0  0  0  0  0  0  0  0  0  0  0
  -26.4230  -30.1010  -17.8430 C   0  0  0  0  0  0  0  0  0  0  0  0
  -26.6070  -30.0480  -16.4900 C   0  0  0  0  0  0  0  0  0  0  0  0
  -27.8780  -29.9700  -15.9560 C   0  0  0  0  0  0  0  0  0  0  0  0
  -28.9740  -29.9500  -16.7680 C   0  0  0  0  0  0  0  0  0  0  0  0
  2  1  1  0
  3  2  1  0
  3  8  2  0
  8  7  1  0
  7  6  2  0
  6  5  1  0
  5 12  2  0
 12 11  1  0
 11 10  2  0
 10  9  1  0
  9  4  2  0
  4  3  1  0
  5  4  1  0
M  END
>  <id>  (1) 
88

>  <inchikey>  (1) 
BILUZSWZYDFPMN-UHFFFAOYSA-N

>  <alias>  (1) 
z0111a

>  <smiles>  (1) 
CNc1nccc2ccccc12

>  <path>  (1) 
/opt/xchem-fragalysis-2/maxwin/BulkDock/TARGETS/Flavi_NS5_RdRp/aligned_files/z0111a/z0111a.pdb

>  <distance_score>  (1) 
None

>  <energy_score>  (1) 
None

>  <compound>  (1) 
BILUZSWZYDFPMN-UHFFFAOYSA-N

>  <compound_id>  (1) 
72

>  <target>  (1) 
Flavi_NS5_RdRp

$$$$
z0496a
     RDKit          3D

 15 16  0  0  0  0  0  0  0  0999 V2000
  -25.9590  -28.7680  -25.1600 N   0  0  0  0  0  0  0  0  0  0  0  0
  -26.0420  -28.4970  -23.8550 C   0  0  0  0  0  0  0  0  0  0  0  0
  -25.1620  -27.1780  -23.1240 S   0  0  0  0  0  0  0  0  0  0  0  0
  -26.8550  -29.1130  -23.0370 N   0  0  0  0  0  0  0  0  0  0  0  0
  -26.8350  -28.5260  -21.7860 C   0  0  0  0  0  0  0  0  0  0  0  0
  -26.0000  -27.4500  -21.6360 C   0  0  0  0  0  0  0  0  0  0  0  0
  -25.8900  -26.4610  -20.5040 C   0  0  0  0  0  0  0  0  0  0  0  0
  -27.7430  -29.0820  -20.7730 C   0  0  0  0  0  0  0  0  0  0  0  0
  -29.0480  -29.3700  -21.1360 C   0  0  0  0  0  0  0  0  0  0  0  0
  -29.9530  -29.8900  -20.2210 C   0  0  0  0  0  0  0  0  0  0  0  0
  -31.3530  -30.2010  -20.6760 C   0  0  0  0  0  0  0  0  0  0  0  0
  -29.5450  -30.1300  -18.9000 C   0  0  0  0  0  0  0  0  0  0  0  0
  -30.5170  -30.6340  -17.8710 C   0  0  0  0  0  0  0  0  0  0  0  0
  -28.2350  -29.8430  -18.5440 C   0  0  0  0  0  0  0  0  0  0  0  0
  -27.3440  -29.3200  -19.4600 C   0  0  0  0  0  0  0  0  0  0  0  0
  7  6  1  0
  6  3  1  0
  3  2  1  0
  2  1  1  0
  4  2  2  0
  5  4  1  0
  6  5  2  0
  8  5  1  0
  8 15  2  0
 15 14  1  0
 14 12  2  0
 13 12  1  0
 12 10  1  0
 11 10  1  0
 10  9  2  0
  9  8  1  0
M  END
>  <id>  (2) 
136

>  <inchikey>  (2) 
TYFLPTHRTUYMKD-UHFFFAOYSA-N

>  <alias>  (2) 
z0496a

>  <smiles>  (2) 
Cc1ccc(-c2nc(N)sc2C)cc1C

>  <path>  (2) 
/opt/xchem-fragalysis-2/maxwin/BulkDock/TARGETS/Flavi_NS5_RdRp/aligned_files/z0496a/z0496a.pdb

>  <distance_score>  (2) 
None

>  <energy_score>  (2) 
None

>  <compound>  (2) 
TYFLPTHRTUYMKD-UHFFFAOYSA-N

>  <compound_id>  (2) 
104

>  <target>  (2) 
Flavi_NS5_RdRp

$$$$
