z0221a
     RDKit          3D

 18 19  0  0  0  0  0  0  0  0999 V2000
  -25.4080  -27.4780  -21.0560 F   0  0  0  0  0  0  0  0  0  0  0  0
  -25.7410  -28.1430  -22.1890 C   0  0  0  0  0  0  0  0  0  0  0  0
  -25.3090  -27.6380  -23.3910 C   0  0  0  0  0  0  0  0  0  0  0  0
  -25.5500  -28.2750  -24.5430 N   0  0  0  0  0  0  0  0  0  0  0  0
  -26.2310  -29.4240  -24.4820 C   0  0  0  0  0  0  0  0  0  0  0  0
  -26.6990  -29.9870  -23.3080 C   0  0  0  0  0  0  0  0  0  0  0  0
  -26.4620  -29.3240  -22.1060 C   0  0  0  0  0  0  0  0  0  0  0  0
  -27.0190  -29.9400  -20.8600 C   0  0  0  0  0  0  0  0  0  0  0  0
  -26.9940  -31.1560  -20.6880 O   0  0  0  0  0  0  0  0  0  0  0  0
  -27.5210  -29.0760  -19.9520 N   0  0  0  0  0  0  0  0  0  0  0  0
  -28.0240  -29.5100  -18.6960 C   0  0  0  0  0  0  0  0  0  0  0  0
  -27.2170  -29.3670  -17.5620 C   0  0  0  0  0  0  0  0  0  0  0  0
  -25.8040  -28.8510  -17.6610 C   0  0  0  0  0  0  0  0  0  0  0  0
  -29.3200  -30.0320  -18.6040 C   0  0  0  0  0  0  0  0  0  0  0  0
  -29.7990  -30.6560  -19.7130 O   0  0  0  0  0  0  0  0  0  0  0  0
  -29.8190  -30.3850  -17.3540 C   0  0  0  0  0  0  0  0  0  0  0  0
  -29.0390  -30.2280  -16.2220 C   0  0  0  0  0  0  0  0  0  0  0  0
  -27.7530  -29.7330  -16.3280 C   0  0  0  0  0  0  0  0  0  0  0  0
 13 12  1  0
 12 18  2  0
 18 17  1  0
 17 16  2  0
 16 14  1  0
 15 14  1  0
 14 11  2  0
 12 11  1  0
 11 10  1  0
 10  8  1  0
  9  8  2  0
  8  7  1  0
  7  6  2  0
  6  5  1  0
  5  4  2  0
  4  3  1  0
  3  2  2  0
  7  2  1  0
  2  1  1  0
M  END
>  <id>  (1) 
105

>  <inchikey>  (1) 
PDGRBWXZTBUJKY-UHFFFAOYSA-N

>  <alias>  (1) 
z0221a

>  <smiles>  (1) 
Cc1cccc(O)c1NC(=O)c1ccncc1F

>  <path>  (1) 
/opt/xchem-fragalysis-2/maxwin/BulkDock/TARGETS/Flavi_NS5_RdRp/aligned_files/z0221a/z0221a.pdb

>  <distance_score>  (1) 
None

>  <energy_score>  (1) 
None

>  <compound>  (1) 
PDGRBWXZTBUJKY-UHFFFAOYSA-N

>  <compound_id>  (1) 
83

>  <target>  (1) 
Flavi_NS5_RdRp

$$$$
z1040a
     RDKit          3D

 12 13  0  0  0  0  0  0  0  0999 V2000
  -24.4130  -30.4810  -16.2440 C   0  0  0  0  0  0  0  0  0  0  0  0
  -25.0350  -30.4490  -17.5480 N   0  0  0  0  0  0  0  0  0  0  0  0
  -26.3820  -30.3770  -17.7220 C   0  0  0  0  0  0  0  0  0  0  0  0
  -26.7710  -30.2300  -18.9810 N   0  0  0  0  0  0  0  0  0  0  0  0
  -28.1160  -30.1920  -19.2360 C   0  0  0  0  0  0  0  0  0  0  0  0
  -29.0760  -30.3170  -18.2040 C   0  0  0  0  0  0  0  0  0  0  0  0
  -28.6080  -30.4480  -16.8770 C   0  0  0  0  0  0  0  0  0  0  0  0
  -27.2710  -30.4820  -16.6230 C   0  0  0  0  0  0  0  0  0  0  0  0
  -28.5520  -30.0240  -20.5700 C   0  0  0  0  0  0  0  0  0  0  0  0
  -29.8820  -30.0300  -20.8630 C   0  0  0  0  0  0  0  0  0  0  0  0
  -30.8250  -30.1900  -19.8590 C   0  0  0  0  0  0  0  0  0  0  0  0
  -30.4410  -30.3200  -18.5540 C   0  0  0  0  0  0  0  0  0  0  0  0
  2  1  1  0
  3  2  1  0
  3  8  2  0
  8  7  1  0
  7  6  2  0
  6 12  1  0
 12 11  2  0
 11 10  1  0
 10  9  2  0
  9  5  1  0
  6  5  1  0
  5  4  2  0
  4  3  1  0
M  END
>  <id>  (2) 
208

>  <inchikey>  (2) 
POVSMFKXVSNGSU-UHFFFAOYSA-N

>  <alias>  (2) 
z1040a

>  <smiles>  (2) 
CNc1ccc2ccccc2n1

>  <path>  (2) 
/opt/xchem-fragalysis-2/maxwin/BulkDock/TARGETS/Flavi_NS5_RdRp/aligned_files/z1040a/z1040a.pdb

>  <distance_score>  (2) 
None

>  <energy_score>  (2) 
None

>  <compound>  (2) 
POVSMFKXVSNGSU-UHFFFAOYSA-N

>  <compound_id>  (2) 
146

>  <target>  (2) 
Flavi_NS5_RdRp

$$$$
