DNV2_NS5A-x0615_A_1608_1_DNV2_NS5A-x0249+A+1707+1
     RDKit          3D

 15 16  0  0  0  0  0  0  0  0999 V2000
   -9.9770  -70.4000  -24.2040 F   0  0  0  0  0  0  0  0  0  0  0  0
  -10.3170  -70.3840  -22.8830 C   0  0  0  0  0  0  0  0  0  0  0  0
  -11.6190  -70.1390  -22.5230 C   0  0  0  0  0  0  0  0  0  0  0  0
  -11.9820  -70.0550  -21.2380 N   0  0  0  0  0  0  0  0  0  0  0  0
  -11.0340  -70.2290  -20.3060 C   0  0  0  0  0  0  0  0  0  0  0  0
   -9.3340  -70.5690  -21.9440 C   0  0  0  0  0  0  0  0  0  0  0  0
   -9.6950  -70.4920  -20.6020 C   0  0  0  0  0  0  0  0  0  0  0  0
   -8.7480  -70.6630  -19.6050 N   0  0  0  0  0  0  0  0  0  0  0  0
   -7.9260  -71.8530  -19.4540 C   0  0  0  0  0  0  0  0  0  0  0  0
   -6.4770  -71.6580  -19.8090 C   0  0  0  0  0  0  0  0  0  0  0  0
   -5.7780  -72.2410  -20.8040 C   0  0  0  0  0  0  0  0  0  0  0  0
   -4.4830  -71.8200  -20.9930 N   0  0  0  0  0  0  0  0  0  0  0  0
   -5.4580  -70.5080  -19.0050 S   0  0  0  0  0  0  0  0  0  0  0  0
   -4.1850  -70.8990  -20.1230 C   0  0  0  0  0  0  0  0  0  0  0  0
   -2.8820  -70.1730  -20.1080 C   0  0  0  0  0  0  0  0  0  0  0  0
 15 14  1  0
 14 12  2  0
 12 11  1  0
 11 10  2  0
 10  9  1  0
  9  8  1  0
  8  7  1  0
  7  5  1  0
  5  4  2  0
  4  3  1  0
  3  2  2  0
  2  1  1  0
  6  2  1  0
  7  6  2  0
 13 10  1  0
 14 13  1  0
M  END
$$$$

