Zika_NS5A-x0702_A_1112_1_Zika_NS5A-x0411+A+1104+1
     RDKit          3D

 16 17  0  0  0  0  0  0  0  0999 V2000
  -15.2170  -25.2490  -17.6810 O   0  0  0  0  0  0  0  0  0  0  0  0
  -15.0180  -24.1140  -18.0050 C   0  0  0  0  0  0  0  0  0  0  0  0
  -14.8110  -23.1180  -17.1470 O   0  0  0  0  0  0  0  0  0  0  0  0
  -15.7690  -22.9970  -16.0680 C   0  0  0  0  0  0  0  0  0  0  0  0
  -14.9970  -23.6160  -19.4560 C   0  0  2  0  0  0  0  0  0  0  0  0
  -14.8360  -24.8060  -20.4280 C   0  0  0  0  0  0  0  0  0  0  0  0
  -13.9310  -24.2340  -21.5170 C   0  0  0  0  0  0  0  0  0  0  0  0
  -12.9210  -23.5880  -20.7070 N   0  0  0  0  0  0  0  0  0  0  0  0
  -13.7050  -22.8040  -19.7490 C   0  0  0  0  0  0  0  0  0  0  0  0
  -16.3160  -22.8670  -19.6470 C   0  0  0  0  0  0  0  0  0  0  0  0
  -17.5090  -23.5770  -19.5830 C   0  0  0  0  0  0  0  0  0  0  0  0
  -18.7160  -22.9630  -19.8420 C   0  0  0  0  0  0  0  0  0  0  0  0
  -16.3810  -21.5130  -19.9530 C   0  0  0  0  0  0  0  0  0  0  0  0
  -17.5950  -20.9100  -20.2230 C   0  0  0  0  0  0  0  0  0  0  0  0
  -18.7820  -21.6250  -20.1720 C   0  0  0  0  0  0  0  0  0  0  0  0
  -20.1040  -20.9640  -20.4580 C   0  0  0  0  0  0  0  0  0  0  0  0
 16 15  1  0
 15 12  1  0
 12 11  2  0
 15 14  2  0
 14 13  1  0
 13 10  2  0
 11 10  1  0
 10  5  1  0
  5  2  1  1
  3  2  1  0
  4  3  1  0
  2  1  2  0
  5  9  1  0
  9  8  1  0
  8  7  1  0
  7  6  1  0
  6  5  1  0
M  END
$$$$

