5f41_A_1003_1_5i3p+A+1003+1
     RDKit          3D

 17 18  0  0  0  0  0  0  0  0999 V2000
  -15.1540  -44.2550  -17.4160 C   0  0  0  0  0  0  0  0  0  0  0  0
  -15.3100  -44.1110  -18.9230 C   0  0  0  0  0  0  0  0  0  0  0  0
  -16.3350  -44.8030  -19.5890 C   0  0  0  0  0  0  0  0  0  0  0  0
  -16.5540  -43.8960  -15.5270 O   0  0  0  0  0  0  0  0  0  0  0  0
  -15.5850  -43.8140  -23.1080 O   0  0  0  0  0  0  0  0  0  0  0  0
  -14.4690  -43.2200  -21.0280 C   0  0  0  0  0  0  0  0  0  0  0  0
  -14.3790  -43.3450  -19.6400 C   0  0  0  0  0  0  0  0  0  0  0  0
  -16.2040  -43.4900  -16.6560 C   0  0  0  0  0  0  0  0  0  0  0  0
  -16.6810  -42.4660  -17.1710 O   0  0  0  0  0  0  0  0  0  0  0  0
  -16.4770  -44.7170  -20.9850 C   0  0  0  0  0  0  0  0  0  0  0  0
  -15.4940  -43.8930  -21.7380 C   0  0  0  0  0  0  0  0  0  0  0  0
  -14.5870  -43.1440  -23.8840 C   0  0  0  0  0  0  0  0  0  0  0  0
  -17.5520  -45.4870  -21.6870 C   0  0  0  0  0  0  0  0  0  0  0  0
  -17.9670  -46.7530  -21.2560 C   0  0  0  0  0  0  0  0  0  0  0  0
  -19.1930  -47.2670  -22.3650 S   0  0  0  0  0  0  0  0  0  0  0  0
  -19.1510  -45.9080  -23.4180 C   0  0  0  0  0  0  0  0  0  0  0  0
  -18.2080  -45.0530  -22.8600 C   0  0  0  0  0  0  0  0  0  0  0  0
 15 16  1  0
 15 14  1  0
 16 17  2  0
 14 13  2  0
 17 13  1  0
 13 10  1  0
 10  3  1  0
 10 11  2  0
  5 11  1  0
  5 12  1  0
  3  2  2  0
 11  6  1  0
  2  1  1  0
  2  7  1  0
  6  7  2  0
  1  8  1  0
  4  8  2  0
  8  9  1  0
M  END
$$$$

