Zika_NS5A-x0904_A_1014_1_Zika_NS5A-x0351+A+1112+1
     RDKit          3D

 13 14  0  0  0  0  0  0  0  0999 V2000
  -27.1210  -30.5100  -21.8080 O   0  0  0  0  0  0  0  0  0  0  0  0
  -28.0850  -30.1040  -21.1720 C   0  0  0  0  0  0  0  0  0  0  0  0
  -29.3130  -29.6280  -21.8780 C   0  0  0  0  0  0  0  0  0  0  0  0
  -28.0480  -30.0850  -19.6840 C   0  0  0  0  0  0  0  0  0  0  0  0
  -26.8250  -29.9880  -19.0300 C   0  0  0  0  0  0  0  0  0  0  0  0
  -26.7490  -29.9870  -17.6400 C   0  0  0  0  0  0  0  0  0  0  0  0
  -27.9310  -30.1060  -16.8930 C   0  0  0  0  0  0  0  0  0  0  0  0
  -29.1620  -30.1830  -17.5470 C   0  0  0  0  0  0  0  0  0  0  0  0
  -29.2130  -30.1770  -18.9300 C   0  0  0  0  0  0  0  0  0  0  0  0
  -25.4340  -29.8120  -16.9260 C   0  0  0  0  0  0  0  0  0  0  0  0
  -25.4260  -30.4420  -15.5590 C   0  0  0  0  0  0  0  0  0  0  0  0
  -26.6640  -30.3150  -14.7460 C   0  0  0  0  0  0  0  0  0  0  0  0
  -27.8850  -30.2410  -15.5310 N   0  0  0  0  0  0  0  0  0  0  0  0
  3  2  1  0
  2  1  2  0
  4  2  1  0
  4  9  2  0
  9  8  1  0
  8  7  2  0
  7 13  1  0
 13 12  1  0
 12 11  1  0
 11 10  1  0
 10  6  1  0
  7  6  1  0
  6  5  2  0
  5  4  1  0
M  END
$$$$

