Zika_NS5A-x0625_A_1302_1_Zika_NS5A-x0041+A+1112+1
     RDKit          3D

 13 13  0  0  0  0  0  0  0  0999 V2000
  -36.2330  -15.7390  -27.3460 O   0  0  0  0  0  0  0  0  0  0  0  0
  -36.8660  -15.7040  -26.0670 S   0  0  0  0  0  0  0  0  0  0  0  0
  -37.6670  -16.7940  -25.6130 O   0  0  0  0  0  0  0  0  0  0  0  0
  -37.7300  -14.3640  -25.9690 N   0  0  0  0  0  0  0  0  0  0  0  0
  -35.6080  -15.3950  -24.8350 C   0  0  0  0  0  0  0  0  0  0  0  0
  -34.9220  -14.0690  -25.0360 C   0  0  0  0  0  0  0  0  0  0  0  0
  -33.7990  -13.9340  -25.8660 C   0  0  0  0  0  0  0  0  0  0  0  0
  -33.2120  -15.1050  -26.6100 C   0  0  0  0  0  0  0  0  0  0  0  0
  -35.4280  -12.9520  -24.3760 C   0  0  0  0  0  0  0  0  0  0  0  0
  -34.8450  -11.7100  -24.5250 C   0  0  0  0  0  0  0  0  0  0  0  0
  -33.7590  -11.6070  -25.3370 C   0  0  0  0  0  0  0  0  0  0  0  0
  -33.1870  -10.3860  -25.5070 F   0  0  0  0  0  0  0  0  0  0  0  0
  -33.2200  -12.6760  -26.0050 C   0  0  0  0  0  0  0  0  0  0  0  0
  8  7  1  0
  7 13  2  0
 13 11  1  0
 12 11  1  0
 11 10  2  0
 10  9  1  0
  9  6  2  0
  7  6  1  0
  6  5  1  0
  5  2  1  0
  3  2  2  0
  2  1  2  0
  4  2  1  0
M  END
$$$$

