5hmx_A_1004_1_DNV2_NS5A-x0249+A+1707+1
     RDKit          3D

 19 20  0  0  0  0  0  0  0  0999 V2000
  -12.3830  -70.5700  -24.6750 C   0  0  0  0  0  0  0  0  0  0  0  0
  -12.5120  -70.0490  -23.2590 C   0  0  0  0  0  0  0  0  0  0  0  0
  -13.6120  -69.2820  -22.8880 C   0  0  0  0  0  0  0  0  0  0  0  0
  -10.5320  -69.1980  -25.1610 O   0  0  0  0  0  0  0  0  0  0  0  0
  -16.8220  -69.4320  -20.4140 O   0  0  0  0  0  0  0  0  0  0  0  0
  -15.3850  -68.6800  -18.8830 O   0  0  0  0  0  0  0  0  0  0  0  0
   -9.7920  -70.9670  -17.8680 C   0  0  0  0  0  0  0  0  0  0  0  0
   -8.7320  -71.0930  -18.6920 C   0  0  0  0  0  0  0  0  0  0  0  0
  -11.5640  -70.3830  -22.2930 C   0  0  0  0  0  0  0  0  0  0  0  0
  -11.6630  -69.6480  -25.6240 C   0  0  0  0  0  0  0  0  0  0  0  0
  -12.0880  -69.3700  -26.7250 O   0  0  0  0  0  0  0  0  0  0  0  0
  -11.7220  -69.9670  -20.9710 C   0  0  0  0  0  0  0  0  0  0  0  0
  -12.8300  -69.2000  -20.6230 C   0  0  0  0  0  0  0  0  0  0  0  0
  -13.7870  -68.8600  -21.5730 C   0  0  0  0  0  0  0  0  0  0  0  0
  -15.0260  -68.0900  -21.1710 C   0  0  0  0  0  0  0  0  0  0  0  0
  -15.7640  -68.7470  -20.0350 C   0  0  0  0  0  0  0  0  0  0  0  0
  -10.7500  -70.3720  -19.9400 C   0  0  0  0  0  0  0  0  0  0  0  0
  -10.9670  -70.5520  -18.5640 C   0  0  0  0  0  0  0  0  0  0  0  0
   -9.1140  -70.7110  -20.3240 S   0  0  0  0  0  0  0  0  0  0  0  0
  7  8  2  0
  7 18  1  0
  8 19  1  0
 18 17  2  0
 19 17  1  0
 17 12  1  0
 12 13  2  0
 12  9  1  0
 13 14  1  0
  9  2  2  0
 14 15  1  0
 14  3  2  0
  2  3  1  0
  2  1  1  0
 15 16  1  0
 16  5  2  0
 16  6  1  0
  1 10  1  0
 11 10  2  0
 10  4  1  0
M  END
$$$$

