Zika_NS5A-x0920_A_1110_1_Zika_NS5A-x0411+A+1104+1
     RDKit          3D

 11 12  0  0  0  0  0  0  0  0999 V2000
  -12.5520  -24.6340  -21.6880 N   0  0  0  0  0  0  0  0  0  0  0  0
  -13.3730  -23.9620  -20.9010 C   0  0  0  0  0  0  0  0  0  0  0  0
  -13.9930  -22.8510  -21.2280 N   0  0  0  0  0  0  0  0  0  0  0  0
  -14.7780  -22.5390  -20.1330 C   0  0  0  0  0  0  0  0  0  0  0  0
  -14.6060  -23.4910  -19.1350 C   0  0  0  0  0  0  0  0  0  0  0  0
  -13.7050  -24.3850  -19.6330 N   0  0  0  0  0  0  0  0  0  0  0  0
  -13.1890  -25.5470  -18.9260 C   0  0  0  0  0  0  0  0  0  0  0  0
  -15.2740  -23.4250  -17.9220 C   0  0  0  0  0  0  0  0  0  0  0  0
  -16.1460  -22.3680  -17.7390 C   0  0  0  0  0  0  0  0  0  0  0  0
  -16.3200  -21.4050  -18.7110 C   0  0  0  0  0  0  0  0  0  0  0  0
  -15.6480  -21.4790  -19.9260 C   0  0  0  0  0  0  0  0  0  0  0  0
  7  6  1  0
  6  2  1  0
  2  1  1  0
  3  2  2  0
  4  3  1  0
  4 11  2  0
 11 10  1  0
 10  9  2  0
  9  8  1  0
  8  5  2  0
  6  5  1  0
  5  4  1  0
M  END
$$$$

