Zika_NS5A-x0266_A_1013_1_Zika_NS5A-x0266+A+1013+1
     RDKit          3D

 14 14  0  0  0  0  0  0  0  0999 V2000
  -35.8990  -52.3610  -22.8750 O   0  0  0  0  0  0  0  0  0  0  0  0
  -35.7290  -51.6200  -23.8560 C   0  0  0  0  0  0  0  0  0  0  0  0
  -35.2680  -50.3800  -23.7400 N   0  0  0  0  0  0  0  0  0  0  0  0
  -35.9480  -52.0340  -25.1420 N   0  0  0  0  0  0  0  0  0  0  0  0
  -36.3380  -53.3110  -25.6290 C   0  0  0  0  0  0  0  0  0  0  0  0
  -36.3030  -53.5100  -27.0110 C   0  0  0  0  0  0  0  0  0  0  0  0
  -36.6070  -54.7570  -27.5440 C   0  0  0  0  0  0  0  0  0  0  0  0
  -36.9520  -55.8110  -26.7090 C   0  0  0  0  0  0  0  0  0  0  0  0
  -36.7040  -54.3640  -24.7890 C   0  0  0  0  0  0  0  0  0  0  0  0
  -37.0140  -55.6130  -25.3270 C   0  0  0  0  0  0  0  0  0  0  0  0
  -37.4120  -56.6410  -24.4260 N   0  0  0  0  0  0  0  0  0  0  0  0
  -37.9810  -57.8460  -24.6980 C   0  0  0  0  0  0  0  0  0  0  0  0
  -37.5670  -58.8960  -24.2230 O   0  0  0  0  0  0  0  0  0  0  0  0
  -39.1890  -57.8060  -25.5920 C   0  0  0  0  0  0  0  0  0  0  0  0
 14 12  1  0
 13 12  2  0
 12 11  1  0
 11 10  1  0
 10  8  1  0
  8  7  2  0
  7  6  1  0
  6  5  2  0
  5  4  1  0
  4  2  1  0
  2  1  2  0
  3  2  1  0
  9  5  1  0
 10  9  2  0
M  END
$$$$

