Zika_NS5A-x0184_A_1113_1_Zika_NS5A-x0041+A+1112+1
     RDKit          3D

 13 13  0  0  0  0  0  0  0  0999 V2000
  -39.0330  -15.1700  -24.5830 O   0  0  0  0  0  0  0  0  0  0  0  0
  -38.5620  -14.7120  -23.5470 C   0  0  0  0  0  0  0  0  0  0  0  0
  -39.2470  -14.9750  -22.1800 C   0  0  0  0  0  0  0  0  0  0  0  0
  -39.6500  -13.7560  -21.5160 N   0  0  0  0  0  0  0  0  0  0  0  0
  -37.4370  -13.9640  -23.4960 N   0  0  0  0  0  0  0  0  0  0  0  0
  -36.2740  -14.1100  -24.2900 C   0  0  0  0  0  0  0  0  0  0  0  0
  -35.8690  -15.3640  -24.7380 C   0  0  0  0  0  0  0  0  0  0  0  0
  -34.7200  -15.4980  -25.4960 C   0  0  0  0  0  0  0  0  0  0  0  0
  -35.5140  -12.9940  -24.6120 C   0  0  0  0  0  0  0  0  0  0  0  0
  -34.3650  -13.1240  -25.3730 C   0  0  0  0  0  0  0  0  0  0  0  0
  -33.9710  -14.3770  -25.8220 C   0  0  0  0  0  0  0  0  0  0  0  0
  -32.8560  -14.6180  -26.5890 O   0  0  0  0  0  0  0  0  0  0  0  0
  -32.3850  -13.5900  -27.4630 C   0  0  0  0  0  0  0  0  0  0  0  0
 13 12  1  0
 12 11  1  0
 11  8  2  0
  8  7  1  0
  7  6  2  0
  6  5  1  0
  5  2  1  0
  2  1  2  0
  3  2  1  0
  4  3  1  0
  9  6  1  0
 10  9  2  0
 11 10  1  0
M  END
$$$$

